<?xml version="1.0" encoding="UTF-8"?>

<!-- generated on 2022-07-26 21:43:19 by Eclipse SUMO duarouter Version 1.13.0
<configuration xmlns:xsi="http://www.w3.org/2001/XMLSchema-instance" xsi:noNamespaceSchemaLocation="http://sumo.dlr.de/xsd/duarouterConfiguration.xsd">

    <input>
        <net-file value="osm.net.xml"/>
        <route-files value="trips.trips.xml"/>
    </input>

    <output>
        <output-file value="trips.trips.xml.tmp"/>
        <write-trips value="true"/>
    </output>

    <time>
        <begin value="0"/>
        <end value="3600"/>
    </time>

    <report>
        <no-warnings value="true"/>
        <ignore-errors value="true"/>
        <no-step-log value="true"/>
    </report>

</configuration>
-->

<routes xmlns:xsi="http://www.w3.org/2001/XMLSchema-instance" xsi:noNamespaceSchemaLocation="http://sumo.dlr.de/xsd/routes_file.xsd">
    <trip id="3" depart="1.00" from="174648974#11" to="-174648974#13"/>
    <trip id="4" depart="1.00" from="231525751#2" to="174648974#5"/>
    <trip id="8" depart="3.00" from="-230411383#2" to="-230411384#1"/>
    <trip id="9" depart="3.00" from="38754841#0" to="38753429#2"/>
    <trip id="10" depart="4.00" from="800283586" to="-795261051"/>
    <trip id="12" depart="5.00" from="312061905#0" to="-174648974#9"/>
    <trip id="15" depart="6.00" from="-734354815#0" to="-734354815#1"/>
    <trip id="16" depart="6.00" from="-38754839#0" to="795276269"/>
    <trip id="17" depart="6.00" from="230411391" to="-348244562#1"/>
    <trip id="18" depart="7.00" from="-28109868#1" to="-795261053#0"/>
    <trip id="19" depart="7.00" from="230411359#1" to="24531446#5"/>
    <trip id="22" depart="9.00" from="231525751#5" to="-795261068"/>
    <trip id="23" depart="10.00" from="-38754837#1" to="-38754835#8"/>
    <trip id="26" depart="11.00" from="-230411383#1" to="-174648974#9"/>
    <trip id="28" depart="12.00" from="-230411357#2" to="-795261053#1"/>
    <trip id="30" depart="13.00" from="372785406#4" to="24531446#3"/>
    <trip id="33" depart="15.00" from="174648974#0" to="-364872807#2"/>
    <trip id="36" depart="16.00" from="179129154#0" to="-1029498846"/>
    <trip id="37" depart="17.00" from="-174648974#1" to="795261070"/>
    <trip id="39" depart="18.00" from="160512744#0" to="-230411358#3"/>
    <trip id="43" depart="20.00" from="-38753429#6" to="-38754989#0"/>
    <trip id="46" depart="21.00" from="-38754835#10" to="-38754833#4"/>
    <trip id="53" depart="24.00" from="24531446#2" to="800358827"/>
    <trip id="56" depart="26.00" from="-38754842#1" to="-38754835#9"/>
    <trip id="60" depart="28.00" from="-230411357#0" to="-795261053#0"/>
    <trip id="63" depart="30.00" from="372785406#1" to="-24531446#5"/>
    <trip id="64" depart="30.00" from="800260297" to="230411359#0"/>
    <trip id="67" depart="31.00" from="795536152#0" to="-230411363"/>
    <trip id="68" depart="31.00" from="230411385" to="231525751#8"/>
    <trip id="70" depart="32.00" from="230411384#3" to="230411385"/>
    <trip id="71" depart="32.00" from="230411383#0" to="174648974#0"/>
    <trip id="75" depart="34.00" from="99713561#5" to="99713561#2"/>
    <trip id="76" depart="34.00" from="-38754833#10" to="-38754837#0"/>
    <trip id="81" depart="37.00" from="-230411395" to="-230411387#1"/>
    <trip id="84" depart="38.00" from="160512744#0" to="777797051"/>
    <trip id="85" depart="39.00" from="-795276321#1" to="-38754841#1"/>
    <trip id="88" depart="40.00" from="-160346394#2" to="-230411360"/>
    <trip id="93" depart="42.00" from="661948161" to="-795276269"/>
    <trip id="94" depart="43.00" from="-24566729#1" to="795261070"/>
    <trip id="95" depart="44.00" from="659848302" to="-174648974#12"/>
    <trip id="97" depart="44.00" from="38755008" to="38754842#1"/>
    <trip id="100" depart="46.00" from="38754836#8" to="-38754835#0"/>
    <trip id="101" depart="46.00" from="-38753429#11" to="-38755006"/>
    <trip id="108" depart="50.00" from="-1029498846" to="795261068"/>
    <trip id="111" depart="51.00" from="-38755008" to="-38754989#2"/>
    <trip id="112" depart="52.00" from="-38754845#3" to="-38754846#1"/>
    <trip id="113" depart="52.00" from="-795276269" to="-38754844#4"/>
    <trip id="114" depart="52.00" from="-795276321#0" to="795276316#0"/>
    <trip id="116" depart="53.00" from="230411358#0" to="-1029498846"/>
    <trip id="117" depart="53.00" from="-800260296" to="230411359#1"/>
    <trip id="120" depart="54.00" from="-348244562#1" to="-230411364#6"/>
    <trip id="121" depart="55.00" from="230411400" to="-546326459"/>
    <trip id="126" depart="56.00" from="312061905#0" to="160346394#1"/>
    <trip id="132" depart="59.00" from="795276318" to="720120467#1"/>
    <trip id="133" depart="59.00" from="372785406#3" to="160346394#6"/>
    <trip id="138" depart="61.00" from="-38754843#1" to="-38754839#1"/>
    <trip id="139" depart="61.00" from="179129155#7" to="-231525751#4"/>
    <trip id="140" depart="62.00" from="28109868#2" to="348244562#0"/>
    <trip id="142" depart="62.00" from="-38753429#9" to="-795276318"/>
    <trip id="144" depart="63.00" from="-795261058" to="-160346394#0"/>
    <trip id="145" depart="64.00" from="38754833#11" to="38754994"/>
    <trip id="147" depart="65.00" from="-38754833#8" to="-38754833#3"/>
    <trip id="148" depart="65.00" from="-174648974#14" to="-546326460"/>
    <trip id="150" depart="66.00" from="-230411399" to="230411386"/>
    <trip id="151" depart="66.00" from="-795261070" to="179129155#7"/>
    <trip id="153" depart="67.00" from="-179129155#3" to="-795261053#0"/>
    <trip id="154" depart="67.00" from="-38755007" to="38754835#1"/>
    <trip id="155" depart="67.00" from="38754833#10" to="38754845#2"/>
    <trip id="156" depart="68.00" from="-230411364#4" to="-174648974#1"/>
    <trip id="157" depart="68.00" from="99713561#5" to="-659848302"/>
    <trip id="159" depart="69.00" from="795276318" to="-38753429#3"/>
    <trip id="160" depart="69.00" from="-24531446#5" to="-230411398#1"/>
    <trip id="164" depart="70.00" from="800260295#1" to="-230411388"/>
    <trip id="166" depart="71.00" from="364872807#0" to="-230411361#0"/>
    <trip id="167" depart="72.00" from="230411398#1" to="-230411385"/>
    <trip id="172" depart="73.00" from="-230411387#1" to="795536152#0"/>
    <trip id="177" depart="75.00" from="38754990#2" to="38754845#1"/>
    <trip id="179" depart="76.00" from="230411392#0" to="-795261053#0"/>
    <trip id="184" depart="78.00" from="28109868#0" to="230411397#0"/>
    <trip id="187" depart="79.00" from="160346394#2" to="174648974#12"/>
    <trip id="189" depart="80.00" from="-38754840" to="-38754836#1"/>
    <trip id="196" depart="83.00" from="312061905#0" to="-230411398#1"/>
    <trip id="198" depart="84.00" from="-800338310" to="-372785406#3"/>
    <trip id="201" depart="85.00" from="-179129155#6" to="-24531446#2"/>
    <trip id="206" depart="87.00" from="230411397#0" to="230411383#0"/>
    <trip id="207" depart="87.00" from="795276317#2" to="-38753429#8"/>
    <trip id="208" depart="87.00" from="24354215" to="-24566729#1"/>
    <trip id="209" depart="88.00" from="-230411361#0" to="-1053831742"/>
    <trip id="211" depart="88.00" from="312061905#2" to="312061905#2"/>
    <trip id="212" depart="89.00" from="26676549#0" to="795261065"/>
    <trip id="213" depart="89.00" from="230411398#0" to="231524908#0"/>
    <trip id="214" depart="90.00" from="230411357#1" to="230411397#0"/>
    <trip id="215" depart="90.00" from="-230411359#1" to="-28109868#1"/>
    <trip id="217" depart="91.00" from="-230411398#1" to="256682036"/>
    <trip id="219" depart="92.00" from="-230411363" to="-174648974#5"/>
    <trip id="220" depart="92.00" from="-38754997" to="-38754836#1"/>
    <trip id="224" depart="93.00" from="160346394#0" to="230411398#0"/>
    <trip id="225" depart="94.00" from="230411383#0" to="230411392#0"/>
    <trip id="229" depart="96.00" from="230411358#2" to="-99713561#0"/>
    <trip id="233" depart="97.00" from="-733460034" to="38754833#9"/>
    <trip id="234" depart="97.00" from="38754834" to="-38753429#6"/>
    <trip id="236" depart="98.00" from="-230411397#1" to="800283586"/>
    <trip id="238" depart="99.00" from="230411358#3" to="-230411383#2"/>
    <trip id="242" depart="101.00" from="230411358#2" to="-795261058"/>
    <trip id="244" depart="102.00" from="38754836#6" to="-795276317#1"/>
    <trip id="245" depart="102.00" from="38754843#1" to="-38754842#2"/>
    <trip id="246" depart="103.00" from="230411383#1" to="99713561#5"/>
    <trip id="247" depart="103.00" from="-24531446#3" to="174648974#2"/>
    <trip id="248" depart="103.00" from="230411358#3" to="174648974#4"/>
    <trip id="249" depart="104.00" from="-38754997" to="-38753429#0"/>
    <trip id="254" depart="105.00" from="-174648974#3" to="160346394#5"/>
    <trip id="256" depart="106.00" from="174648974#9" to="-99713561#1"/>
    <trip id="258" depart="107.00" from="160346394#0" to="800260297"/>
    <trip id="259" depart="107.00" from="28109868#2" to="230411398#0"/>
    <trip id="261" depart="109.00" from="589701037#0" to="-174648974#2"/>
    <trip id="262" depart="109.00" from="230411399" to="795261062"/>
    <trip id="263" depart="110.00" from="-800283585" to="-230411384#1"/>
    <trip id="266" depart="111.00" from="-38754844#4" to="-770164514"/>
    <trip id="268" depart="111.00" from="-348244562#1" to="-230411361#1"/>
    <trip id="272" depart="113.00" from="-256682038#3" to="-800283587"/>
    <trip id="273" depart="114.00" from="230411383#2" to="230411393"/>
    <trip id="274" depart="114.00" from="-38754836#2" to="38754990#0"/>
    <trip id="275" depart="114.00" from="-795261061" to="1055011759"/>
    <trip id="276" depart="115.00" from="230411364#8" to="230411358#2"/>
    <trip id="277" depart="115.00" from="800338311" to="230411400"/>
    <trip id="278" depart="116.00" from="230411364#0" to="24566729#0"/>
    <trip id="279" depart="116.00" from="-179129155#3" to="230411381"/>
    <trip id="280" depart="116.00" from="736419599" to="-38754843#0"/>
    <trip id="282" depart="117.00" from="230411396" to="24531446#0"/>
    <trip id="285" depart="118.00" from="-800338310" to="230411359#1"/>
    <trip id="287" depart="119.00" from="-358416654#2" to="-230411400"/>
    <trip id="288" depart="119.00" from="800283585" to="174648974#12"/>
    <trip id="289" depart="120.00" from="-38754836#6" to="38754844#2"/>
    <trip id="290" depart="120.00" from="38754840" to="38754833#1"/>
    <trip id="291" depart="120.00" from="-230411395" to="800260295#0"/>
    <trip id="293" depart="121.00" from="800338313" to="800260296"/>
    <trip id="295" depart="122.00" from="179129155#4" to="-99713561#0"/>
    <trip id="296" depart="122.00" from="24531446#2" to="230411361#1"/>
    <trip id="302" depart="124.00" from="160512744#0" to="-230411384#1"/>
    <trip id="303" depart="125.00" from="-99713561#1" to="231525751#5"/>
    <trip id="304" depart="125.00" from="795276317#1" to="-795276318"/>
    <trip id="308" depart="128.00" from="256682038#0" to="174648974#5"/>
    <trip id="309" depart="128.00" from="-795276267" to="-38753429#1"/>
    <trip id="312" depart="129.00" from="38754836#3" to="-38754835#6"/>
    <trip id="313" depart="130.00" from="230411363" to="-230411358#3"/>
    <trip id="314" depart="130.00" from="-38753429#9" to="-38754833#11"/>
    <trip id="318" depart="132.00" from="-174648974#12" to="-160346394#5"/>
    <trip id="319" depart="132.00" from="-38754835#4" to="-38754996"/>
    <trip id="321" depart="133.00" from="38754302" to="1053831742"/>
    <trip id="322" depart="133.00" from="174648974#17" to="-230411388"/>
    <trip id="325" depart="134.00" from="800260295#0" to="-230411357#1"/>
    <trip id="327" depart="135.00" from="795261051" to="-230411359#1"/>
    <trip id="328" depart="135.00" from="230411391" to="-230411358#0"/>
    <trip id="329" depart="135.00" from="230411400" to="174648974#8"/>
    <trip id="330" depart="136.00" from="99713561#2" to="174648974#12"/>
    <trip id="331" depart="136.00" from="230411389" to="-230411384#3"/>
    <trip id="337" depart="138.00" from="795261062" to="-230411358#2"/>
    <trip id="338" depart="138.00" from="-230411383#2" to="-230411384#0"/>
    <trip id="341" depart="139.00" from="-719366588" to="231525751#2"/>
    <trip id="342" depart="140.00" from="546326460" to="38321920"/>
    <trip id="347" depart="142.00" from="230411393" to="230411395"/>
    <trip id="350" depart="143.00" from="-589701037#1" to="-160346394#0"/>
    <trip id="355" depart="145.00" from="-230411364#7" to="-179129155#4"/>
    <trip id="356" depart="146.00" from="230411395" to="231525751#7"/>
    <trip id="357" depart="146.00" from="24354215" to="1055011759"/>
    <trip id="358" depart="146.00" from="-38754841#0" to="38754833#5"/>
    <trip id="360" depart="147.00" from="160512744#0" to="231525751#3"/>
    <trip id="361" depart="147.00" from="-795261070" to="230411368"/>
    <trip id="363" depart="148.00" from="-38754836#6" to="-38755006"/>
    <trip id="365" depart="149.00" from="312061905#0" to="160346394#4"/>
    <trip id="367" depart="150.00" from="-174648974#0" to="795261062"/>
    <trip id="368" depart="150.00" from="230411369" to="358416651"/>
    <trip id="369" depart="151.00" from="-230411395" to="-174648974#10"/>
    <trip id="371" depart="151.00" from="795261061" to="-230411364#8"/>
    <trip id="372" depart="152.00" from="230411383#2" to="174648974#0"/>
    <trip id="375" depart="153.00" from="174648974#13" to="777797051"/>
    <trip id="376" depart="153.00" from="38753429#10" to="38754843#1"/>
    <trip id="380" depart="155.00" from="38754833#4" to="38754835#1"/>
    <trip id="382" depart="155.00" from="230411397#1" to="546326459"/>
    <trip id="383" depart="156.00" from="-24531446#4" to="-230411358#3"/>
    <trip id="384" depart="156.00" from="-38754845#5" to="-38754841#0"/>
    <trip id="387" depart="157.00" from="38755008" to="38754996"/>
    <trip id="388" depart="157.00" from="174648974#12" to="103269863#0"/>
    <trip id="389" depart="158.00" from="38754836#7" to="734354812"/>
    <trip id="391" depart="158.00" from="160346394#3" to="-24531446#3"/>
    <trip id="395" depart="160.00" from="174648974#6" to="-256682036"/>
    <trip id="396" depart="160.00" from="-38754842#3" to="-795276285"/>
    <trip id="398" depart="161.00" from="-230411358#2" to="-230411383#2"/>
    <trip id="399" depart="161.00" from="-38754843#0" to="38753429#10"/>
    <trip id="401" depart="162.00" from="230411381" to="-231525751#5"/>
    <trip id="402" depart="162.00" from="800260296" to="28109868#0"/>
    <trip id="406" depart="163.00" from="256682038#0" to="174648974#1"/>
    <trip id="411" depart="165.00" from="38754845#3" to="661948161"/>
    <trip id="413" depart="166.00" from="-795261053#0" to="-26676549#1"/>
    <trip id="414" depart="166.00" from="38754835#3" to="38754842#0"/>
    <trip id="418" depart="168.00" from="-38754989#0" to="38754841#1"/>
    <trip id="424" depart="170.00" from="38754989#2" to="38754991"/>
    <trip id="425" depart="171.00" from="38754835#1" to="-38754840"/>
    <trip id="427" depart="172.00" from="-99713561#0" to="-659848302"/>
    <trip id="428" depart="172.00" from="-179129155#6" to="160346394#5"/>
    <trip id="430" depart="173.00" from="795276266" to="38754846#0"/>
    <trip id="433" depart="174.00" from="312061905#2" to="-800338313"/>
    <trip id="436" depart="175.00" from="-38754844#0" to="-38754845#2"/>
    <trip id="437" depart="175.00" from="-795276320" to="38754836#9"/>
    <trip id="441" depart="177.00" from="-38754835#6" to="-795276317#1"/>
    <trip id="442" depart="177.00" from="-230411364#7" to="800283587"/>
    <trip id="444" depart="178.00" from="-795261068" to="103269863#1"/>
    <trip id="446" depart="179.00" from="38754836#5" to="-655704256"/>
    <trip id="448" depart="179.00" from="-546326460" to="-174648974#8"/>
    <trip id="455" depart="182.00" from="38754833#11" to="-38753429#1"/>
    <trip id="458" depart="183.00" from="722469737#0" to="-795261060"/>
    <trip id="459" depart="184.00" from="160512745" to="795261068"/>
    <trip id="460" depart="184.00" from="38754839#0" to="38753429#11"/>
    <trip id="464" depart="186.00" from="28109759" to="-661911647"/>
    <trip id="471" depart="188.00" from="-795261060" to="230411357#0"/>
    <trip id="476" depart="190.00" from="-795261062" to="179129155#5"/>
    <trip id="478" depart="191.00" from="795261059" to="146496119#1"/>
    <trip id="479" depart="191.00" from="38754991" to="-817131841"/>
    <trip id="480" depart="192.00" from="-230411364#8" to="24531446#4"/>
    <trip id="481" depart="193.00" from="-661911647" to="-230411358#0"/>
    <trip id="482" depart="193.00" from="720120467#1" to="38754991"/>
    <trip id="484" depart="194.00" from="174648974#13" to="-230411397#1"/>
    <trip id="487" depart="195.00" from="230411358#3" to="230411383#2"/>
    <trip id="490" depart="196.00" from="-230411360" to="800283586"/>
    <trip id="492" depart="196.00" from="655704256" to="38754835#9"/>
    <trip id="493" depart="197.00" from="-372785406#1" to="800260296"/>
    <trip id="494" depart="197.00" from="795261053#0" to="-179129155#7"/>
    <trip id="495" depart="197.00" from="-24531446#5" to="-28109759"/>
    <trip id="497" depart="199.00" from="230411401" to="174648974#9"/>
    <trip id="500" depart="200.00" from="231525751#8" to="38321920"/>
    <trip id="502" depart="201.00" from="-174648974#14" to="-174648974#9"/>
    <trip id="503" depart="201.00" from="230411369" to="230411398#0"/>
    <trip id="507" depart="203.00" from="-230411359#1" to="-230411357#0"/>
    <trip id="519" depart="207.00" from="-719366588" to="-179129155#3"/>
    <trip id="520" depart="208.00" from="661911647" to="230411398#3"/>
    <trip id="527" depart="210.00" from="800283587" to="-795261065"/>
    <trip id="530" depart="211.00" from="-174648974#9" to="-231525751#2"/>
    <trip id="531" depart="211.00" from="160346394#2" to="-99713561#1"/>
    <trip id="533" depart="212.00" from="-28109759" to="99713561#0"/>
    <trip id="535" depart="213.00" from="179129155#1" to="358416651"/>
    <trip id="537" depart="213.00" from="800338313" to="230411361#1"/>
    <trip id="539" depart="214.00" from="160346394#2" to="800260296"/>
    <trip id="541" depart="215.00" from="230411383#0" to="-348244562#1"/>
    <trip id="543" depart="215.00" from="24566729#0" to="-174648974#16"/>
    <trip id="546" depart="217.00" from="795261061" to="589701037#1"/>
    <trip id="547" depart="217.00" from="-230411357#2" to="-231525751#2"/>
    <trip id="552" depart="219.00" from="-38753429#11" to="-38754835#8"/>
    <trip id="554" depart="220.00" from="-38754844#1" to="-38753429#8"/>
    <trip id="557" depart="221.00" from="-795261058" to="800338313"/>
    <trip id="558" depart="221.00" from="795276320" to="38754840"/>
    <trip id="562" depart="223.00" from="-231525751#4" to="230411384#1"/>
    <trip id="565" depart="224.00" from="372785406#1" to="-230411385"/>
    <trip id="567" depart="225.00" from="795276268" to="655800405"/>
    <trip id="569" depart="226.00" from="231524908#0" to="795261051"/>
    <trip id="570" depart="226.00" from="230411369" to="174648974#15"/>
    <trip id="572" depart="227.00" from="661911647" to="-358416651"/>
    <trip id="574" depart="229.00" from="230411364#6" to="-230411387#1"/>
    <trip id="576" depart="230.00" from="795276285" to="38754991"/>
    <trip id="579" depart="231.00" from="38753429#4" to="38754836#7"/>
    <trip id="581" depart="232.00" from="174648974#2" to="-230411364#7"/>
    <trip id="582" depart="233.00" from="-372785406#5" to="-231525751#5"/>
    <trip id="583" depart="233.00" from="-38754836#1" to="-38754836#7"/>
    <trip id="584" depart="233.00" from="38754833#11" to="795276320"/>
    <trip id="586" depart="234.00" from="28109868#2" to="-230411357#1"/>
    <trip id="587" depart="234.00" from="-38754846#1" to="-795276269"/>
    <trip id="589" depart="235.00" from="-230411396" to="795261059"/>
    <trip id="593" depart="236.00" from="179129155#5" to="231525751#0"/>
    <trip id="594" depart="237.00" from="-38754835#9" to="38754833#5"/>
    <trip id="596" depart="238.00" from="230411363" to="-230411357#1"/>
    <trip id="597" depart="238.00" from="174648974#11" to="230411358#0"/>
    <trip id="601" depart="239.00" from="174648974#17" to="-99713561#1"/>
    <trip id="603" depart="240.00" from="-795276266" to="38754843#0"/>
    <trip id="604" depart="240.00" from="230411369" to="-174648974#8"/>
    <trip id="605" depart="241.00" from="-230411357#2" to="99713561#1"/>
    <trip id="607" depart="242.00" from="38754835#2" to="38754835#2"/>
    <trip id="609" depart="243.00" from="546326461" to="777797051"/>
    <trip id="610" depart="243.00" from="256682036" to="231524908#0"/>
    <trip id="612" depart="244.00" from="179129155#5" to="174648974#11"/>
    <trip id="618" depart="246.00" from="38754835#11" to="661948161"/>
    <trip id="621" depart="247.00" from="38753429#7" to="-795276267"/>
    <trip id="624" depart="248.00" from="38753429#12" to="-38754990#2"/>
    <trip id="626" depart="249.00" from="-231525751#8" to="230411401"/>
    <trip id="628" depart="250.00" from="-795536152#1" to="160346394#1"/>
    <trip id="629" depart="251.00" from="38754836#2" to="-38754990#2"/>
    <trip id="630" depart="252.00" from="-24531446#3" to="-777797051"/>
    <trip id="633" depart="253.00" from="800260296" to="179129155#2"/>
    <trip id="634" depart="253.00" from="-38754835#7" to="-38753429#6"/>
    <trip id="636" depart="254.00" from="38753429#1" to="-38753429#1"/>
    <trip id="637" depart="254.00" from="24531446#3" to="230411368"/>
    <trip id="638" depart="255.00" from="38754834" to="38753429#10"/>
    <trip id="639" depart="255.00" from="160346394#5" to="589701037#0"/>
    <trip id="641" depart="257.00" from="99713561#5" to="1055011759"/>
    <trip id="645" depart="258.00" from="160512745" to="-230411384#3"/>
    <trip id="651" depart="261.00" from="231525751#4" to="24531446#5"/>
    <trip id="653" depart="262.00" from="160512744#0" to="-28109868#2"/>
    <trip id="654" depart="262.00" from="-348244562#1" to="38321920"/>
    <trip id="655" depart="262.00" from="795261059" to="174648974#4"/>
    <trip id="656" depart="263.00" from="-230411357#0" to="-174648974#17"/>
    <trip id="657" depart="264.00" from="38754835#10" to="-795276316#1"/>
    <trip id="658" depart="264.00" from="312061905#2" to="-160346394#1"/>
    <trip id="659" depart="265.00" from="-777797051" to="230411384#3"/>
    <trip id="660" depart="265.00" from="230411394" to="1055011759"/>
    <trip id="661" depart="265.00" from="-160346394#0" to="179129153"/>
    <trip id="664" depart="267.00" from="795261051" to="-230411387#1"/>
    <trip id="666" depart="267.00" from="38754842#2" to="-38754837#1"/>
    <trip id="668" depart="268.00" from="817131842" to="-38754834"/>
    <trip id="670" depart="269.00" from="-230411383#2" to="-795261053#0"/>
    <trip id="671" depart="269.00" from="-179129155#7" to="-160346394#1"/>
    <trip id="672" depart="270.00" from="174648974#0" to="-800260296"/>
    <trip id="674" depart="270.00" from="179129153" to="-174648974#6"/>
    <trip id="675" depart="271.00" from="546326460" to="719366588"/>
    <trip id="676" depart="271.00" from="-174648974#9" to="-230411360"/>
    <trip id="677" depart="272.00" from="-174648974#17" to="795261070"/>
    <trip id="678" depart="272.00" from="795536152#0" to="230411362"/>
    <trip id="679" depart="273.00" from="358416651" to="-795261070"/>
    <trip id="681" depart="274.00" from="733460034" to="-38755008"/>
    <trip id="683" depart="274.00" from="174648974#0" to="800283587"/>
    <trip id="685" depart="275.00" from="38754835#2" to="795276321#0"/>
    <trip id="687" depart="276.00" from="99713561#1" to="146496119#1"/>
    <trip id="689" depart="276.00" from="24354215" to="-230411364#7"/>
    <trip id="692" depart="277.00" from="38753429#7" to="-38754990#1"/>
    <trip id="693" depart="278.00" from="-1058823730" to="-38754846#0"/>
    <trip id="700" depart="280.00" from="-348244562#1" to="-795261053#1"/>
    <trip id="704" depart="282.00" from="230411398#0" to="230411364#7"/>
    <trip id="708" depart="284.00" from="-38754996" to="795276317#2"/>
    <trip id="710" depart="285.00" from="28263624#0" to="146496119#1"/>
    <trip id="713" depart="286.00" from="230411384#1" to="174648974#6"/>
    <trip id="715" depart="287.00" from="348244562#0" to="-800283585"/>
    <trip id="725" depart="291.00" from="800358827" to="24531446#0"/>
    <trip id="728" depart="292.00" from="174648974#4" to="230411359#1"/>
    <trip id="729" depart="292.00" from="-800338314" to="-795261062"/>
    <trip id="730" depart="292.00" from="230411383#2" to="160346394#4"/>
    <trip id="731" depart="293.00" from="-174648974#12" to="-230411387#0"/>
    <trip id="732" depart="293.00" from="795536152#0" to="-230411395"/>
    <trip id="734" depart="294.00" from="160379981" to="1053831742"/>
    <trip id="737" depart="295.00" from="24531446#4" to="-28109759"/>
    <trip id="738" depart="296.00" from="-358416651" to="-256682038#3"/>
    <trip id="739" depart="296.00" from="795276321#1" to="-38754835#10"/>
    <trip id="740" depart="297.00" from="-372785406#5" to="230411394"/>
    <trip id="741" depart="297.00" from="-174648974#14" to="230411384#0"/>
    <trip id="742" depart="297.00" from="230411384#1" to="-795261061"/>
    <trip id="743" depart="298.00" from="-38753429#8" to="38754833#4"/>
    <trip id="744" depart="298.00" from="-230411357#2" to="-230411385"/>
    <trip id="747" depart="299.00" from="230411386" to="230411383#1"/>
    <trip id="750" depart="300.00" from="230411393" to="-230411364#6"/>
    <trip id="753" depart="301.00" from="-231525751#4" to="-795261058"/>
    <trip id="754" depart="302.00" from="230411401" to="26676549#0"/>
    <trip id="755" depart="302.00" from="99713561#5" to="179129154#0"/>
    <trip id="759" depart="304.00" from="160512744#0-AddedOffRampEdge" to="24531446#5"/>
    <trip id="763" depart="305.00" from="-99713561#3" to="38754302"/>
    <trip id="764" depart="305.00" from="230411358#2" to="-230411390"/>
    <trip id="765" depart="306.00" from="38754835#6" to="38754844#1"/>
    <trip id="768" depart="307.00" from="38754845#0" to="38754833#11"/>
    <trip id="769" depart="307.00" from="99713561#5" to="-800338314"/>
    <trip id="771" depart="308.00" from="-38754835#4" to="38754842#1"/>
    <trip id="773" depart="309.00" from="-28109868#2" to="-231525751#4"/>
    <trip id="778" depart="310.00" from="-230411384#0" to="800260295#0"/>
    <trip id="779" depart="311.00" from="795261060" to="99713561#1"/>
    <trip id="781" depart="312.00" from="38754844#4" to="38754835#10"/>
    <trip id="782" depart="312.00" from="160512744#0" to="230411358#3"/>
    <trip id="783" depart="312.00" from="-795276317#2" to="-817131841"/>
    <trip id="784" depart="313.00" from="659848302" to="-230411383#2"/>
    <trip id="785" depart="313.00" from="-38754842#1" to="795276269"/>
    <trip id="786" depart="313.00" from="795276318" to="-38754999"/>
    <trip id="787" depart="314.00" from="38754835#5" to="38753429#3"/>
    <trip id="789" depart="314.00" from="-230411357#2" to="174648974#15"/>
    <trip id="790" depart="315.00" from="-800260295#0" to="-38754302"/>
    <trip id="792" depart="315.00" from="230411364#0" to="1055011759"/>
    <trip id="793" depart="316.00" from="256682036" to="-179129155#1"/>
    <trip id="796" depart="317.00" from="795276321#1" to="-38753429#4"/>
    <trip id="797" depart="317.00" from="-230411401" to="230411398#0"/>
    <trip id="798" depart="317.00" from="795276267" to="-38754840"/>
    <trip id="799" depart="318.00" from="-38754836#2" to="-736419599"/>
    <trip id="800" depart="318.00" from="-795276266" to="-38754845#5"/>
    <trip id="802" depart="319.00" from="-1029498846" to="1053831742"/>
    <trip id="805" depart="320.00" from="-230411401" to="-230411359#0"/>
    <trip id="807" depart="321.00" from="659848302" to="-231525751#2"/>
    <trip id="809" depart="322.00" from="179129154#0" to="-160346394#1"/>
    <trip id="816" depart="324.00" from="230411387#0" to="230411381"/>
    <trip id="819" depart="325.00" from="38754833#0" to="-38754844#4"/>
    <trip id="820" depart="326.00" from="734354812" to="795276321#0"/>
    <trip id="821" depart="326.00" from="-230411392#0" to="160346394#3"/>
    <trip id="822" depart="326.00" from="179129153" to="800338311"/>
    <trip id="825" depart="328.00" from="-160379981" to="-230411358#2"/>
    <trip id="826" depart="329.00" from="-174648974#5" to="-230411357#0"/>
    <trip id="827" depart="329.00" from="174648974#12" to="230411388"/>
    <trip id="829" depart="330.00" from="179129155#4" to="230411384#1"/>
    <trip id="833" depart="331.00" from="-230411358#2" to="28109868#0"/>
    <trip id="836" depart="332.00" from="-38754989#0" to="38753429#9"/>
    <trip id="837" depart="332.00" from="-230411397#0" to="348244562#2"/>
    <trip id="841" depart="334.00" from="661948162" to="38754835#5"/>
    <trip id="842" depart="334.00" from="38754841#0" to="-38754839#1"/>
    <trip id="843" depart="334.00" from="358416651" to="230411358#3"/>
    <trip id="846" depart="335.00" from="-230411386" to="230411358#2"/>
    <trip id="848" depart="336.00" from="38755006" to="-38754835#7"/>
    <trip id="849" depart="336.00" from="-795261060" to="-24531446#3"/>
    <trip id="851" depart="338.00" from="-38754997" to="-795276317#1"/>
    <trip id="855" depart="339.00" from="1058823730" to="-38754842#2"/>
    <trip id="856" depart="340.00" from="230411358#3" to="-160346394#1"/>
    <trip id="859" depart="341.00" from="38754835#4" to="-38753429#12"/>
    <trip id="861" depart="342.00" from="-38754835#2" to="-655704256"/>
    <trip id="863" depart="344.00" from="-230411387#0" to="174648974#11"/>
    <trip id="864" depart="344.00" from="160512744#0" to="-230411357#0"/>
    <trip id="865" depart="345.00" from="-230411383#2" to="795261062"/>
    <trip id="867" depart="346.00" from="-230411384#0" to="-230411401"/>