<?xml version="1.0" encoding="UTF-8"?>

<!-- generated on 2022-07-26 21:42:27 by Eclipse SUMO netconvert Version 1.13.0
<configuration xmlns:xsi="http://www.w3.org/2001/XMLSchema-instance" xsi:noNamespaceSchemaLocation="http://sumo.dlr.de/xsd/netconvertConfiguration.xsd">

    <input>
        <sumo-net-file value="osm.net.xml"/>
    </input>

    <output>
        <plain-output-prefix value="plain"/>
        <output.street-names value="true"/>
    </output>

    <processing>
        <geometry.min-radius.fix.railways value="false"/>
        <geometry.max-grade.fix value="false"/>
        <offset.disable-normalization value="true"/>
        <lefthand value="true"/>
    </processing>

    <junctions>
        <no-turnarounds value="true"/>
        <junctions.corner-detail value="5"/>
        <junctions.limit-turn-speed value="5.5"/>
        <rectangular-lane-cut value="false"/>
    </junctions>

    <pedestrian>
        <walkingareas value="false"/>
    </pedestrian>

    <report>
        <aggregate-warnings value="5"/>
    </report>

</configuration>
-->

<connections version="1.9" xmlns:xsi="http://www.w3.org/2001/XMLSchema-instance" xsi:noNamespaceSchemaLocation="http://sumo.dlr.de/xsd/connections_file.xsd">
    <connection from="-1029498846" to="800260296" fromLane="0" toLane="0"/>
    <connection from="-1029498846" to="-800260295#0" fromLane="0" toLane="0"/>
    <connection from="-1029498846" to="800260295#1" fromLane="0" toLane="0"/>

    <connection from="-1053831742" to="1053831742" fromLane="0" toLane="0"/>

    <connection from="-1058823730" to="1058823730" fromLane="0" toLane="0"/>

    <connection from="-160346394#0" to="160346394#0" fromLane="0" toLane="0"/>

    <connection from="-160346394#1" to="-160346394#0" fromLane="0" toLane="0"/>
    <connection from="-160346394#1" to="230411384#0" fromLane="0" toLane="0"/>
    <connection from="-160346394#1" to="160346394#1" fromLane="0" toLane="0"/>

    <connection from="-160346394#2" to="-160346394#1" fromLane="0" toLane="0"/>
    <connection from="-160346394#2" to="230411389" fromLane="0" toLane="0"/>
    <connection from="-160346394#2" to="160346394#2" fromLane="0" toLane="0"/>

    <connection from="-160346394#3" to="-160346394#2" fromLane="0" toLane="0"/>
    <connection from="-160346394#3" to="230411385" fromLane="0" toLane="0"/>
    <connection from="-160346394#3" to="160346394#3" fromLane="0" toLane="0"/>

    <connection from="-160346394#5" to="-231525751#8" fromLane="0" toLane="0"/>
    <connection from="-160346394#5" to="160346394#5" fromLane="0" toLane="0"/>

    <connection from="-160379981" to="312061905#2" fromLane="0" toLane="0"/>
    <connection from="-160379981" to="160379981" fromLane="0" toLane="0"/>

    <connection from="-174648974#0" to="-24531446#5" fromLane="0" toLane="0"/>
    <connection from="-174648974#0" to="28109759" fromLane="0" toLane="0"/>
    <connection from="-174648974#0" to="174648974#0" fromLane="0" toLane="0"/>

    <connection from="-174648974#1" to="-174648974#0" fromLane="0" toLane="0"/>
    <connection from="-174648974#1" to="546326459" fromLane="0" toLane="0"/>
    <connection from="-174648974#1" to="174648974#1" fromLane="0" toLane="0"/>

    <connection from="-174648974#10" to="-800283586" fromLane="0" toLane="0"/>
    <connection from="-174648974#10" to="-174648974#9" fromLane="0" toLane="0"/>
    <connection from="-174648974#10" to="174648974#10" fromLane="0" toLane="0"/>

    <connection from="-174648974#11" to="-174648974#10" fromLane="0" toLane="0"/>
    <connection from="-174648974#11" to="-795261065" fromLane="0" toLane="0"/>
    <connection from="-174648974#11" to="174648974#11" fromLane="0" toLane="0"/>

    <connection from="-174648974#12" to="-174648974#11" fromLane="0" toLane="0"/>
    <connection from="-174648974#12" to="-795261062" fromLane="0" toLane="0"/>
    <connection from="-174648974#12" to="174648974#12" fromLane="0" toLane="0"/>

    <connection from="-174648974#13" to="-174648974#12" fromLane="0" toLane="0"/>
    <connection from="-174648974#13" to="-795261053#1" fromLane="0" toLane="0"/>
    <connection from="-174648974#13" to="174648974#13" fromLane="0" toLane="0"/>

    <connection from="-174648974#14" to="-174648974#13" fromLane="0" toLane="0"/>
    <connection from="-174648974#14" to="-795261060" fromLane="1" toLane="0"/>

    <connection from="-174648974#16" to="-795261059" fromLane="0" toLane="0"/>
    <connection from="-174648974#16" to="-174648974#14" fromLane="0" toLane="1"/>
    <connection from="-174648974#16" to="174648974#15" fromLane="0" toLane="0"/>

    <connection from="-174648974#17" to="-795261058" fromLane="0" toLane="0"/>
    <connection from="-174648974#17" to="-174648974#16" fromLane="0" toLane="0"/>
    <connection from="-174648974#17" to="174648974#17" fromLane="0" toLane="0"/>

    <connection from="-174648974#2" to="230411381" fromLane="0" toLane="0"/>
    <connection from="-174648974#2" to="-174648974#1" fromLane="0" toLane="0"/>
    <connection from="-174648974#2" to="174648974#2" fromLane="0" toLane="0"/>

    <connection from="-174648974#3" to="-174648974#2" fromLane="0" toLane="0"/>
    <connection from="-174648974#3" to="-1053831742" fromLane="0" toLane="0"/>
    <connection from="-174648974#3" to="174648974#3" fromLane="0" toLane="0"/>

    <connection from="-174648974#4" to="230411361#1" fromLane="0" toLane="0"/>
    <connection from="-174648974#4" to="-174648974#3" fromLane="0" toLane="0"/>
    <connection from="-174648974#4" to="-230411361#0" fromLane="0" toLane="0"/>
    <connection from="-174648974#4" to="174648974#4" fromLane="0" toLane="0"/>

    <connection from="-174648974#5" to="230411360" fromLane="0" toLane="0"/>
    <connection from="-174648974#5" to="-174648974#4" fromLane="0" toLane="0"/>
    <connection from="-174648974#5" to="174648974#5" fromLane="0" toLane="0"/>

    <connection from="-174648974#6" to="230411358#0" fromLane="0" toLane="0"/>
    <connection from="-174648974#6" to="-174648974#5" fromLane="0" toLane="0"/>
    <connection from="-174648974#6" to="174648974#6" fromLane="0" toLane="0"/>

    <connection from="-174648974#8" to="-28109868#2" fromLane="0" toLane="0"/>
    <connection from="-174648974#8" to="-174648974#6" fromLane="0" toLane="0"/>
    <connection from="-174648974#8" to="-1029498846" fromLane="0" toLane="0"/>
    <connection from="-174648974#8" to="174648974#8" fromLane="0" toLane="0"/>

    <connection from="-174648974#9" to="-174648974#8" fromLane="0" toLane="0"/>
    <connection from="-174648974#9" to="-800283587" fromLane="0" toLane="0"/>
    <connection from="-174648974#9" to="174648974#9" fromLane="0" toLane="0"/>

    <connection from="-179129155#1" to="28109868#0" fromLane="0" toLane="0"/>
    <connection from="-179129155#1" to="179129153" fromLane="0" toLane="0"/>
    <connection from="-179129155#1" to="179129155#1" fromLane="0" toLane="0"/>

    <connection from="-179129155#3" to="24531446#0" fromLane="0" toLane="0"/>
    <connection from="-179129155#3" to="-179129155#1" fromLane="0" toLane="0"/>
    <connection from="-179129155#3" to="179129155#2" fromLane="0" toLane="0"/>

    <connection from="-179129155#4" to="358416651" fromLane="0" toLane="0"/>
    <connection from="-179129155#4" to="-179129155#3" fromLane="0" toLane="0"/>
    <connection from="-179129155#4" to="179129155#4" fromLane="0" toLane="0"/>

    <connection from="-179129155#6" to="230411364#0" fromLane="0" toLane="0"/>
    <connection from="-179129155#6" to="-179129155#4" fromLane="0" toLane="0"/>
    <connection from="-179129155#6" to="179129155#5" fromLane="0" toLane="0"/>

    <connection from="-179129155#7" to="-719366588" fromLane="0" toLane="0"/>
    <connection from="-179129155#7" to="-179129155#6" fromLane="0" toLane="0"/>
    <connection from="-179129155#7" to="179129155#7" fromLane="0" toLane="0"/>

    <connection from="-230171936" to="230171936" fromLane="0" toLane="0"/>

    <connection from="-230411357#0" to="-24531446#0" fromLane="0" toLane="0"/>
    <connection from="-230411357#0" to="800373053" fromLane="0" toLane="0"/>
    <connection from="-230411357#0" to="24531446#2" fromLane="0" toLane="0"/>
    <connection from="-230411357#0" to="230411357#0" fromLane="0" toLane="0"/>

    <connection from="-230411357#1" to="800338313" fromLane="0" toLane="0"/>
    <connection from="-230411357#1" to="-230411357#0" fromLane="0" toLane="0"/>
    <connection from="-230411357#1" to="230411357#1" fromLane="0" toLane="0"/>

    <connection from="-230411357#2" to="-230411357#1" fromLane="0" toLane="0"/>
    <connection from="-230411357#2" to="-230411359#1" fromLane="0" toLane="0"/>
    <connection from="-230411357#2" to="230411357#2" fromLane="0" toLane="0"/>

    <connection from="-230411358#0" to="-174648974#5" fromLane="0" toLane="0"/>
    <connection from="-230411358#0" to="174648974#6" fromLane="0" toLane="0"/>
    <connection from="-230411358#0" to="230411358#0" fromLane="0" toLane="0"/>

    <connection from="-230411358#2" to="230411359#0" fromLane="0" toLane="0"/>
    <connection from="-230411358#2" to="-230411360" fromLane="0" toLane="0"/>
    <connection from="-230411358#2" to="-230411358#0" fromLane="0" toLane="0"/>
    <connection from="-230411358#2" to="230411358#2" fromLane="0" toLane="0"/>

    <connection from="-230411358#3" to="-230411357#2" fromLane="0" toLane="0"/>
    <connection from="-230411358#3" to="-230411358#2" fromLane="0" toLane="0"/>
    <connection from="-230411358#3" to="230411358#3" fromLane="0" toLane="0"/>

    <connection from="-230411359#0" to="-230411360" fromLane="0" toLane="0"/>
    <connection from="-230411359#0" to="-230411358#0" fromLane="0" toLane="0"/>
    <connection from="-230411359#0" to="230411358#2" fromLane="0" toLane="0"/>
    <connection from="-230411359#0" to="230411359#0" fromLane="0" toLane="0"/>

    <connection from="-230411359#1" to="230411362" fromLane="0" toLane="0"/>
    <connection from="-230411359#1" to="-230411359#0" fromLane="0" toLane="0"/>
    <connection from="-230411359#1" to="230411359#1" fromLane="0" toLane="0"/>

    <connection from="-230411360" to="-174648974#4" fromLane="0" toLane="0"/>
    <connection from="-230411360" to="174648974#5" fromLane="0" toLane="0"/>
    <connection from="-230411360" to="230411360" fromLane="0" toLane="0"/>

    <connection from="-230411361#0" to="372785406#1" fromLane="0" toLane="0"/>
    <connection from="-230411361#0" to="800338310" fromLane="0" toLane="0"/>
    <connection from="-230411361#0" to="-372785406#0" fromLane="0" toLane="0"/>

    <connection from="-230411361#1" to="-174648974#3" fromLane="0" toLane="0"/>
    <connection from="-230411361#1" to="-230411361#0" fromLane="0" toLane="0"/>
    <connection from="-230411361#1" to="174648974#4" fromLane="0" toLane="0"/>
    <connection from="-230411361#1" to="230411361#1" fromLane="0" toLane="0"/>

    <connection from="-230411363" to="24531446#4" fromLane="0" toLane="0"/>
    <connection from="-230411363" to="-24531446#3" fromLane="0" toLane="0"/>
    <connection from="-230411363" to="230411363" fromLane="0" toLane="0"/>

    <connection from="-230411364#4" to="-179129155#4" fromLane="0" toLane="0"/>
    <connection from="-230411364#4" to="179129155#5" fromLane="0" toLane="0"/>
    <connection from="-230411364#4" to="230411364#0" fromLane="0" toLane="0"/>

    <connection from="-230411364#6" to="-358416654#2" fromLane="0" toLane="0"/>
    <connection from="-230411364#6" to="-230411364#4" fromLane="0" toLane="0"/>
    <connection from="-230411364#6" to="719366588" fromLane="0" toLane="0"/>
    <connection from="-230411364#6" to="230411364#6" fromLane="0" toLane="0"/>

    <connection from="-230411364#7" to="-230411364#6" fromLane="0" toLane="0"/>
    <connection from="-230411364#7" to="-800338311" fromLane="0" toLane="0"/>
    <connection from="-230411364#7" to="230411364#7" fromLane="0" toLane="0"/>

    <connection from="-230411364#8" to="-659848302" fromLane="0" toLane="0"/>
    <connection from="-230411364#8" to="-230411364#7" fromLane="0" toLane="0"/>
    <connection from="-230411364#8" to="230411364#8" fromLane="0" toLane="0"/>

    <connection from="-230411383#0" to="160346394#6" fromLane="0" toLane="0"/>
    <connection from="-230411383#0" to="-160346394#5" fromLane="0" toLane="0"/>
    <connection from="-230411383#0" to="230411383#0" fromLane="0" toLane="0"/>

    <connection from="-230411383#1" to="-795261068" fromLane="0" toLane="0"/>
    <connection from="-230411383#1" to="-230411383#0" fromLane="0" toLane="0"/>
    <connection from="-230411383#1" to="230411383#1" fromLane="0" toLane="0"/>

    <connection from="-230411383#2" to="230411397#0" fromLane="0" toLane="0"/>
    <connection from="-230411383#2" to="-230411383#1" fromLane="0" toLane="0"/>
    <connection from="-230411383#2" to="230411383#2" fromLane="0" toLane="0"/>

    <connection from="-230411384#0" to="160346394#1" fromLane="0" toLane="0"/>
    <connection from="-230411384#0" to="-160346394#0" fromLane="0" toLane="0"/>
    <connection from="-230411384#0" to="230411384#0" fromLane="0" toLane="0"/>

    <connection from="-230411384#1" to="230411388" fromLane="0" toLane="0"/>
    <connection from="-230411384#1" to="-230411384#0" fromLane="0" toLane="0"/>
    <connection from="-230411384#1" to="230411384#1" fromLane="0" toLane="0"/>

    <connection from="-230411384#3" to="-230411384#1" fromLane="0" toLane="0"/>
    <connection from="-230411384#3" to="230411395" fromLane="0" toLane="0"/>
    <connection from="-230411384#3" to="230411390" fromLane="0" toLane="0"/>
    <connection from="-230411384#3" to="230411384#3" fromLane="0" toLane="0"/>

    <connection from="-230411385" to="160346394#3" fromLane="0" toLane="0"/>
    <connection from="-230411385" to="-160346394#2" fromLane="0" toLane="0"/>
    <connection from="-230411385" to="230411385" fromLane="0" toLane="0"/>

    <connection from="-230411386" to="160346394#4" fromLane="0" toLane="0"/>
    <connection from="-230411386" to="-160346394#3" fromLane="0" toLane="0"/>
    <connection from="-230411386" to="230411386" fromLane="0" toLane="0"/>

    <connection from="-230411387#0" to="-231525751#7" fromLane="0" toLane="0"/>
    <connection from="-230411387#0" to="231525751#8" fromLane="0" toLane="0"/>
    <connection from="-230411387#0" to="230411387#0" fromLane="0" toLane="0"/>

    <connection from="-230411387#1" to="230411396" fromLane="0" toLane="0"/>
    <connection from="-230411387#1" to="-230411387#0" fromLane="0" toLane="0"/>
    <connection from="-230411387#1" to="230411387#1" fromLane="0" toLane="0"/>

    <connection from="-230411388" to="-230411384#0" fromLane="0" toLane="0"/>
    <connection from="-230411388" to="230411384#1" fromLane="0" toLane="0"/>
    <connection from="-230411388" to="230411388" fromLane="0" toLane="0"/>

    <connection from="-230411389" to="160346394#2" fromLane="0" toLane="0"/>
    <connection from="-230411389" to="-160346394#1" fromLane="0" toLane="0"/>
    <connection from="-230411389" to="230411389" fromLane="0" toLane="0"/>

    <connection from="-230411390" to="230411384#3" fromLane="0" toLane="0"/>
    <connection from="-230411390" to="-230411384#1" fromLane="0" toLane="0"/>
    <connection from="-230411390" to="230411395" fromLane="0" toLane="0"/>
    <connection from="-230411390" to="230411390" fromLane="0" toLane="0"/>

    <connection from="-230411392#0" to="-231525751#1" fromLane="0" toLane="0"/>
    <connection from="-230411392#0" to="231525751#2" fromLane="0" toLane="0"/>
    <connection from="-230411392#0" to="230411392#0" fromLane="0" toLane="0"/>

    <connection from="-230411395" to="230411390" fromLane="0" toLane="0"/>
    <connection from="-230411395" to="230411384#3" fromLane="0" toLane="0"/>
    <connection from="-230411395" to="-230411384#1" fromLane="0" toLane="0"/>
    <connection from="-230411395" to="230411395" fromLane="0" toLane="0"/>

    <connection from="-230411396" to="-230411387#0" fromLane="0" toLane="0"/>
    <connection from="-230411396" to="230411387#1" fromLane="0" toLane="0"/>
    <connection from="-230411396" to="230411396" fromLane="0" toLane="0"/>

    <connection from="-230411397#0" to="-230411383#1" fromLane="0" toLane="0"/>
    <connection from="-230411397#0" to="230411383#2" fromLane="0" toLane="0"/>
    <connection from="-230411397#0" to="230411397#0" fromLane="0" toLane="0"/>

    <connection from="-230411397#1" to="-230411397#0" fromLane="0" toLane="0"/>
    <connection from="-230411397#1" to="-795261070" fromLane="0" toLane="0"/>
    <connection from="-230411397#1" to="230411397#1" fromLane="0" toLane="0"/>

    <connection from="-230411398#0" to="231525751#5" fromLane="0" toLane="0"/>
    <connection from="-230411398#0" to="-231525751#4" fromLane="0" toLane="0"/>
    <connection from="-230411398#0" to="230411398#0" fromLane="0" toLane="0"/>

    <connection from="-230411398#1" to="230411400" fromLane="0" toLane="0"/>
    <connection from="-230411398#1" to="-230411398#0" fromLane="0" toLane="0"/>
    <connection from="-230411398#1" to="230411398#1" fromLane="0" toLane="0"/>

    <connection from="-230411398#3" to="230411399" fromLane="0" toLane="0"/>
    <connection from="-230411398#3" to="-230411398#1" fromLane="0" toLane="0"/>
    <connection from="-230411398#3" to="230411401" fromLane="0" toLane="0"/>
    <connection from="-230411398#3" to="230411398#3" fromLane="0" toLane="0"/>

    <connection from="-230411399" to="-230411398#1" fromLane="0" toLane="0"/>
    <connection from="-230411399" to="230411401" fromLane="0" toLane="0"/>
    <connection from="-230411399" to="230411398#3" fromLane="0" toLane="0"/>
    <connection from="-230411399" to="230411399" fromLane="0" toLane="0"/>

    <connection from="-230411400" to="-230411398#0" fromLane="0" toLane="0"/>
    <connection from="-230411400" to="230411398#1" fromLane="0" toLane="0"/>
    <connection from="-230411400" to="230411400" fromLane="0" toLane="0"/>

    <connection from="-230411401" to="230411398#3" fromLane="0" toLane="0"/>
    <connection from="-230411401" to="230411399" fromLane="0" toLane="0"/>
    <connection from="-230411401" to="-230411398#1" fromLane="0" toLane="0"/>
    <connection from="-230411401" to="230411401" fromLane="0" toLane="0"/>

    <connection from="-231525751#1" to="-795536152#1" fromLane="0" toLane="0"/>
    <connection from="-231525751#1" to="-28263624#1" fromLane="0" toLane="0"/>
    <connection from="-231525751#1" to="231525751#0" fromLane="0" toLane="0"/>

    <connection from="-231525751#2" to="230411392#0" fromLane="0" toLane="0"/>
    <connection from="-231525751#2" to="-231525751#1" fromLane="0" toLane="0"/>
    <connection from="-231525751#2" to="231525751#2" fromLane="0" toLane="0"/>

    <connection from="-231525751#4" to="777797051" fromLane="0" toLane="0"/>
    <connection from="-231525751#4" to="231525751#4" fromLane="0" toLane="0"/>

    <connection from="-231525751#5" to="-231525751#4" fromLane="0" toLane="0"/>
    <connection from="-231525751#5" to="230411398#0" fromLane="0" toLane="0"/>
    <connection from="-231525751#5" to="231525751#5" fromLane="0" toLane="0"/>

    <connection from="-231525751#7" to="-230411384#3" fromLane="0" toLane="0"/>
    <connection from="-231525751#7" to="-231525751#5" fromLane="0" toLane="0"/>
    <connection from="-231525751#7" to="-230411383#2" fromLane="0" toLane="0"/>
    <connection from="-231525751#7" to="231525751#7" fromLane="0" toLane="0"/>

    <connection from="-231525751#8" to="230411387#0" fromLane="0" toLane="0"/>
    <connection from="-231525751#8" to="-231525751#7" fromLane="0" toLane="0"/>
    <connection from="-231525751#8" to="231525751#8" fromLane="0" toLane="0"/>

    <connection from="-24531446#0" to="-179129155#1" fromLane="0" toLane="0"/>
    <connection from="-24531446#0" to="179129155#2" fromLane="0" toLane="0"/>
    <connection from="-24531446#0" to="24531446#0" fromLane="0" toLane="0"/>

    <connection from="-24531446#2" to="230411357#0" fromLane="0" toLane="0"/>
    <connection from="-24531446#2" to="-24531446#0" fromLane="0" toLane="0"/>
    <connection from="-24531446#2" to="800373053" fromLane="0" toLane="0"/>
    <connection from="-24531446#2" to="24531446#2" fromLane="0" toLane="0"/>

    <connection from="-24531446#3" to="-24531446#2" fromLane="0" toLane="0"/>
    <connection from="-24531446#3" to="-800283585" fromLane="0" toLane="0"/>
    <connection from="-24531446#3" to="24531446#3" fromLane="0" toLane="0"/>

    <connection from="-24531446#4" to="-24531446#3" fromLane="0" toLane="0"/>
    <connection from="-24531446#4" to="230411363" fromLane="0" toLane="0"/>
    <connection from="-24531446#4" to="24531446#4" fromLane="0" toLane="0"/>

    <connection from="-24531446#5" to="-24531446#4" fromLane="0" toLane="0"/>
    <connection from="-24531446#5" to="99713561#0" fromLane="0" toLane="0"/>
    <connection from="-24531446#5" to="24531446#5" fromLane="0" toLane="0"/>

    <connection from="-24566729#1" to="24566729#0" fromLane="0" toLane="0"/>

    <connection from="-256682036" to="-589691606" fromLane="0" toLane="0"/>
    <connection from="-256682036" to="28263624#0" fromLane="0" toLane="0"/>
    <connection from="-256682036" to="256682036" fromLane="0" toLane="0"/>

    <connection from="-256682038#3" to="-364872807#2" fromLane="0" toLane="0"/>
    <connection from="-256682038#3" to="-256682036" fromLane="0" toLane="0"/>
    <connection from="-256682038#3" to="256682038#0" fromLane="0" toLane="0"/>

    <connection from="-26676549#1" to="231524908#0" fromLane="0" toLane="0"/>
    <connection from="-26676549#1" to="179129154#0" fromLane="0" toLane="0"/>
    <connection from="-26676549#1" to="26676549#0" fromLane="0" toLane="0"/>

    <connection from="-28109759" to="174648974#0" fromLane="0" toLane="0"/>
    <connection from="-28109759" to="-24531446#5" fromLane="0" toLane="0"/>
    <connection from="-28109759" to="28109759" fromLane="0" toLane="0"/>

    <connection from="-28109868#1" to="179129153" fromLane="0" toLane="0"/>
    <connection from="-28109868#1" to="179129155#1" fromLane="0" toLane="0"/>
    <connection from="-28109868#1" to="28109868#0" fromLane="0" toLane="0"/>

    <connection from="-28109868#2" to="661911647" fromLane="0" toLane="0"/>
    <connection from="-28109868#2" to="-28109868#1" fromLane="0" toLane="0"/>
    <connection from="-28109868#2" to="28109868#2" fromLane="0" toLane="0"/>

    <connection from="-28263624#1" to="256682036" fromLane="0" toLane="0"/>
    <connection from="-28263624#1" to="-589691606" fromLane="0" toLane="0"/>
    <connection from="-28263624#1" to="28263624#0" fromLane="0" toLane="0"/>

    <connection from="-348244562#1" to="348244562#0" fromLane="0" toLane="0"/>

    <connection from="-348244562#2" to="589701037#1" fromLane="0" toLane="0"/>
    <connection from="-348244562#2" to="-348244562#1" fromLane="0" toLane="0"/>
    <connection from="-348244562#2" to="-589701037#0" fromLane="0" toLane="0"/>
    <connection from="-348244562#2" to="348244562#2" fromLane="0" toLane="0"/>

    <connection from="-358416651" to="-179129155#3" fromLane="0" toLane="0"/>
    <connection from="-358416651" to="179129155#4" fromLane="0" toLane="0"/>
    <connection from="-358416651" to="358416651" fromLane="0" toLane="0"/>

    <connection from="-358416654#2" to="24531446#2" fromLane="0" toLane="0"/>
    <connection from="-358416654#2" to="230411357#0" fromLane="0" toLane="0"/>
    <connection from="-358416654#2" to="-24531446#0" fromLane="0" toLane="0"/>
    <connection from="-358416654#2" to="800373053" fromLane="0" toLane="0"/>

    <connection from="-364872807#2" to="1055011759" fromLane="0" toLane="0"/>
    <connection from="-364872807#2" to="-38754302" fromLane="0" toLane="0"/>
    <connection from="-364872807#2" to="364872807#0" fromLane="0" toLane="0"/>

    <connection from="-372785406#0" to="174648974#4" fromLane="0" toLane="0"/>
    <connection from="-372785406#0" to="230411361#1" fromLane="0" toLane="0"/>
    <connection from="-372785406#0" to="-174648974#3" fromLane="0" toLane="0"/>
    <connection from="-372785406#0" to="-230411361#0" fromLane="0" toLane="0"/>

    <connection from="-372785406#1" to="800338310" fromLane="0" toLane="0"/>
    <connection from="-372785406#1" to="-372785406#0" fromLane="0" toLane="0"/>
    <connection from="-372785406#1" to="372785406#1" fromLane="0" toLane="0"/>

    <connection from="-372785406#3" to="800260297" fromLane="0" toLane="0"/>
    <connection from="-372785406#3" to="-372785406#1" fromLane="0" toLane="0"/>
    <connection from="-372785406#3" to="-800338314" fromLane="0" toLane="0"/>
    <connection from="-372785406#3" to="372785406#3" fromLane="0" toLane="0"/>

    <connection from="-372785406#5" to="800260295#0" fromLane="0" toLane="0"/>
    <connection from="-372785406#5" to="-372785406#3" fromLane="0" toLane="0"/>
    <connection from="-372785406#5" to="372785406#4" fromLane="0" toLane="0"/>

    <connection from="-38753429#0" to="38754835#1" fromLane="0" toLane="0"/>
    <connection from="-38753429#0" to="38754994" fromLane="0" toLane="0"/>
    <connection from="-38753429#0" to="-38754835#0" fromLane="0" toLane="0"/>

    <connection from="-38753429#1" to="655800405" fromLane="0" toLane="0"/>
    <connection from="-38753429#1" to="-38753429#0" fromLane="0" toLane="0"/>
    <connection from="-38753429#1" to="38753429#1" fromLane="0" toLane="0"/>

    <connection from="-38753429#10" to="-38753429#9" fromLane="0" toLane="0"/>
    <connection from="-38753429#10" to="720120467#0" fromLane="0" toLane="0"/>
    <connection from="-38753429#10" to="38753429#10" fromLane="0" toLane="0"/>

    <connection from="-38753429#11" to="734354812" fromLane="0" toLane="0"/>
    <connection from="-38753429#11" to="-38753429#10" fromLane="0" toLane="0"/>
    <connection from="-38753429#11" to="38753429#11" fromLane="0" toLane="0"/>

    <connection from="-38753429#12" to="-795317202" fromLane="0" toLane="0"/>
    <connection from="-38753429#12" to="-38753429#11" fromLane="0" toLane="0"/>
    <connection from="-38753429#12" to="38753429#12" fromLane="0" toLane="0"/>

    <connection from="-38753429#2" to="-38753429#1" fromLane="0" toLane="0"/>
    <connection from="-38753429#2" to="-38754995" fromLane="0" toLane="0"/>
    <connection from="-38753429#2" to="38753429#2" fromLane="0" toLane="0"/>

    <connection from="-38753429#3" to="-795276321#0" fromLane="0" toLane="0"/>
    <connection from="-38753429#3" to="-38753429#2" fromLane="0" toLane="0"/>
    <connection from="-38753429#3" to="795276321#1" fromLane="0" toLane="0"/>
    <connection from="-38753429#3" to="38753429#3" fromLane="0" toLane="0"/>

    <connection from="-38753429#4" to="-38753429#3" fromLane="0" toLane="0"/>
    <connection from="-38753429#4" to="655069638" fromLane="0" toLane="0"/>
    <connection from="-38753429#4" to="38753429#4" fromLane="0" toLane="0"/>

    <connection from="-38753429#6" to="38754834" fromLane="0" toLane="0"/>
    <connection from="-38753429#6" to="-38753429#4" fromLane="0" toLane="0"/>
    <connection from="-38753429#6" to="736419599" fromLane="0" toLane="0"/>
    <connection from="-38753429#6" to="38753429#6" fromLane="0" toLane="0"/>

    <connection from="-38753429#7" to="-38753429#6" fromLane="0" toLane="0"/>
    <connection from="-38753429#7" to="38754996" fromLane="0" toLane="0"/>
    <connection from="-38753429#7" to="38753429#7" fromLane="0" toLane="0"/>

    <connection from="-38753429#8" to="-38753429#7" fromLane="0" toLane="0"/>
    <connection from="-38753429#8" to="38754997" fromLane="0" toLane="0"/>
    <connection from="-38753429#8" to="38753429#8" fromLane="0" toLane="0"/>

    <connection from="-38753429#9" to="-38753429#8" fromLane="0" toLane="0"/>
    <connection from="-38753429#9" to="-795276269" fromLane="0" toLane="0"/>
    <connection from="-38753429#9" to="38753429#9" fromLane="0" toLane="0"/>

    <connection from="-38754302" to="-24566729#1" fromLane="0" toLane="0"/>
    <connection from="-38754302" to="-179129155#7" fromLane="0" toLane="0"/>
    <connection from="-38754302" to="38754302" fromLane="0" toLane="0"/>

    <connection from="-38754833#0" to="-1058823730" fromLane="0" toLane="0"/>
    <connection from="-38754833#0" to="-38753429#12" fromLane="0" toLane="0"/>
    <connection from="-38754833#0" to="38754833#0" fromLane="0" toLane="0"/>

    <connection from="-38754833#10" to="-38754833#9" fromLane="0" toLane="0"/>
    <connection from="-38754833#10" to="-38754835#11" fromLane="0" toLane="0"/>
    <connection from="-38754833#10" to="38754833#10" fromLane="0" toLane="0"/>

    <connection from="-38754833#11" to="-38754833#10" fromLane="0" toLane="0"/>
    <connection from="-38754833#11" to="38754991" fromLane="0" toLane="0"/>
    <connection from="-38754833#11" to="38754833#11" fromLane="0" toLane="0"/>

    <connection from="-38754833#3" to="-38754833#0" fromLane="0" toLane="0"/>
    <connection from="-38754833#3" to="-38755008" fromLane="0" toLane="0"/>
    <connection from="-38754833#3" to="38754833#1" fromLane="0" toLane="0"/>

    <connection from="-38754833#4" to="-38754833#3" fromLane="0" toLane="0"/>
    <connection from="-38754833#4" to="38754836#1" fromLane="0" toLane="0"/>
    <connection from="-38754833#4" to="-38754999" fromLane="0" toLane="0"/>
    <connection from="-38754833#4" to="38754833#4" fromLane="0" toLane="0"/>

    <connection from="-38754833#8" to="-38754833#4" fromLane="0" toLane="0"/>
    <connection from="-38754833#8" to="38754842#0" fromLane="0" toLane="0"/>
    <connection from="-38754833#8" to="38754833#5" fromLane="0" toLane="0"/>

    <connection from="-38754833#9" to="-38754833#8" fromLane="0" toLane="0"/>
    <connection from="-38754833#9" to="-733460034" fromLane="0" toLane="0"/>
    <connection from="-38754833#9" to="38754833#9" fromLane="0" toLane="0"/>

    <connection from="-38754834" to="-38753429#4" fromLane="0" toLane="0"/>
    <connection from="-38754834" to="736419599" fromLane="0" toLane="0"/>
    <connection from="-38754834" to="38753429#6" fromLane="0" toLane="0"/>