<?xml version="1.0" encoding="UTF-8"?>

<!-- generated on 2022-07-27 03:09:34 by Eclipse SUMO duarouter Version 1.13.0
<configuration xmlns:xsi="http://www.w3.org/2001/XMLSchema-instance" xsi:noNamespaceSchemaLocation="http://sumo.dlr.de/xsd/duarouterConfiguration.xsd">

    <input>
        <net-file value="osm.net.xml"/>
        <route-files value="trips.trips.xml"/>
    </input>

    <output>
        <output-file value="dua.rou.xml"/>
        <alternatives-output value="dua.rou.alt.xml"/>
    </output>

    <time>
        <begin value="0"/>
        <end value="3600"/>
    </time>

    <report>
        <no-warnings value="true"/>
        <ignore-errors value="true"/>
        <no-step-log value="true"/>
    </report>

</configuration>
-->

<routes xmlns:xsi="http://www.w3.org/2001/XMLSchema-instance" xsi:noNamespaceSchemaLocation="http://sumo.dlr.de/xsd/routes_file.xsd">
    <vehicle id="0" depart="0.00">
        <route edges="-38754841#0 -38754836#3 -38754836#2 -38754836#1 38754833#4 -38754833#4"/>
    </vehicle>
    <vehicle id="5" depart="10.00">
        <route edges="-38754835#0 38753429#1 38753429#2 38753429#3 655069638 -38754845#5 -38754845#3 -38754845#2 -38754845#1 -38754843#1 -38754843#0"/>
    </vehicle>
    <vehicle id="7" depart="17.00">
        <route edges="-38754990#0 38754990#0 38754990#1 38754835#2 38754835#3 38754835#4 -38754846#1 -38754846#0 -38754845#3 -38754845#2 -38754841#1 -38754841#0 38754836#5 38754836#6 38754837#0 -38754837#0"/>
    </vehicle>
    <vehicle id="8" depart="24.00">
        <route edges="-174648974#9 -174648974#8 -28109868#2 -28109868#1 179129153 26676549#0 256682037 28263624#0 231525751#0 231525751#2 231525751#3 231525751#4 231525751#5 -230411384#3 -230411384#1 230411388 -230411388"/>
    </vehicle>
    <vehicle id="9" depart="25.00">
        <route edges="-795261053#1 795261053#1 -174648974#12 -174648974#11 -174648974#10 -174648974#9 -174648974#8 -174648974#6 -174648974#5 -174648974#4 -174648974#3 -174648974#2 -174648974#1 -174648974#0 -24531446#5 99713561#0 99713561#1 99713561#2"/>
    </vehicle>
    <vehicle id="10" depart="26.00">
        <route edges="372785406#4 -372785406#5 -372785406#3 -372785406#1 -372785406#0 -174648974#3 -174648974#2 -174648974#1 -174648974#0 -24531446#5 -24531446#4 -24531446#3 24531446#3"/>
    </vehicle>
    <vehicle id="12" depart="35.00">
        <route edges="655800405 -655800405 -38753429#0 38754835#1 38754835#2 38754835#3 38754835#4 -38754846#1 -38754846#0 817131842 795276317#2"/>
    </vehicle>
    <vehicle id="13" depart="36.00">
        <route edges="160346394#6 -174648974#17 -174648974#16 -174648974#14 -174648974#13 -174648974#12 -174648974#11 -174648974#10 -174648974#9 -174648974#8 -174648974#6 230411358#0 230411358#2 230411358#3 -230411358#3"/>
    </vehicle>
    <vehicle id="19" depart="56.00">
        <route edges="-795261053#0 795261053#0 795261053#1 -174648974#12 -174648974#11 -174648974#10 -174648974#9 -174648974#8 -174648974#6 -174648974#5 -174648974#4 -174648974#3 -174648974#2 -174648974#1 -174648974#0 -24531446#5 -24531446#4 -24531446#3 -24531446#2 800373053"/>
    </vehicle>
    <vehicle id="20" depart="61.00">
        <route edges="230411381 -230411359#0 -230411358#0 174648974#6 -28109868#2 -28109868#1 179129153 26676549#0 256682037 28263624#0 231525751#0 231525751#2 231525751#3 231525751#4 231525751#5 -230411384#3 -230411384#1 -230411384#0 160346394#1 160346394#2"/>
    </vehicle>
    <vehicle id="21" depart="62.00">
        <route edges="-372785406#5 -372785406#3 -372785406#1 -372785406#0 -174648974#3 -174648974#2 -174648974#1 -174648974#0 -24531446#5 99713561#0 99713561#1 99713561#2 99713561#3 -230411364#8 -230411364#7 230411364#7"/>
    </vehicle>
    <vehicle id="22" depart="69.00">
        <route edges="-99713561#1 99713561#1 99713561#2 99713561#3 99713561#5"/>
    </vehicle>
    <vehicle id="23" depart="70.00">
        <route edges="-38754833#0 38754833#0 38754833#1 38754836#1 38754836#2 38754836#3 38754836#5 38754836#6 38754836#7 38754836#8 38754836#9 -38754836#9 -38754836#8"/>
    </vehicle>
    <vehicle id="24" depart="73.00">
        <route edges="38754843#0 -38754842#2 38754844#1 38754844#2 38754844#4 -38754844#4"/>
    </vehicle>
    <vehicle id="26" depart="78.00">
        <route edges="-795276320 795276320 -38754845#5 -38754845#3 -38754845#2 -38754841#1 -38754841#0 38754836#5 38754840 -38754840"/>
    </vehicle>
    <vehicle id="29" depart="85.00">
        <route edges="38754835#9 -38754835#9 -38754835#8 -38754835#7 -38754835#6 -38754835#5 -38754835#4 -38754835#3 -661948161 -661948162 661948162"/>
    </vehicle>
    <vehicle id="30" depart="88.00">
        <route edges="38753429#4 -38753429#4 655069638 -38754845#5 -38754845#3 -38754845#2 -38754845#1 -38754845#0 -38754844#1 -38754842#1 -38754842#0 38754833#5 -733460034 -38754835#10 -38754835#9 -38754835#8 -38755006"/>
    </vehicle>
    <vehicle id="32" depart="92.00">
        <route edges="-38753429#10 -38753429#9 -38753429#8 38754997 -38754997"/>
    </vehicle>
    <vehicle id="34" depart="100.00">
        <route edges="795261068 -230411383#0 160346394#6 -174648974#17 -174648974#16 -174648974#14 -174648974#13 174648974#13"/>
    </vehicle>
    <vehicle id="36" depart="107.00">
        <route edges="-38754843#0 38754843#0 38754843#1 38754845#1 38754845#2 38754845#3 38754845#5 38754845#6 -38753429#3 -795276321#0"/>
    </vehicle>
    <vehicle id="37" depart="110.00">
        <route edges="174648974#15 -174648974#16 -174648974#14 -174648974#13 -174648974#12 -174648974#11 -174648974#10 -174648974#9 -174648974#8 -28109868#2 -28109868#1 179129153 26676549#0 256682037 28263624#0 231525751#0 231525751#2 231525751#3 231525751#4 231525751#5 -230411384#3 230411390"/>
    </vehicle>
    <vehicle id="40" depart="115.00">
        <route edges="38754833#10 -38754833#10 -38754835#11 -38754835#10 -38754835#9 -38754835#8 -38754835#7 -38754835#6 -38754835#5 -38754835#4 38754835#4"/>
    </vehicle>
    <vehicle id="42" depart="117.00">
        <route edges="-38754835#9 -38754835#8 -38754835#7 -38754835#6 -38754835#5 -38754835#4 -38754835#3 -38754835#2 38754990#2"/>
    </vehicle>
    <vehicle id="43" depart="124.00">
        <route edges="-38754842#3 -38754843#0 38754836#3 38754836#5 38754836#6 38754836#7 38754839#0 -38754839#0"/>
    </vehicle>
    <vehicle id="46" depart="133.00">
        <route edges="-546326460 -99713561#1 -99713561#0 -24531446#4 -24531446#3 -24531446#2 24531446#2"/>
    </vehicle>
    <vehicle id="47" depart="135.00">
        <route edges="-795261068 795261068 -230411383#0 160346394#6 -174648974#17 -174648974#16 -174648974#14 -174648974#13 -174648974#12 -174648974#11 -174648974#10 -174648974#9 -174648974#8 -174648974#6 -174648974#5 -174648974#4 -174648974#3 -174648974#2 -174648974#1 -174648974#0 -24531446#5 99713561#0 99713561#1 99713561#2 99713561#3 -230411364#8 -230411364#7 -230411364#6 719366588 179129155#7"/>
    </vehicle>
    <vehicle id="50" depart="139.00">
        <route edges="-174648974#1 -174648974#0 -24531446#5 -24531446#4 -24531446#3 -24531446#2 -24531446#0 -179129155#1 179129153 179129154#0 -174648974#17 -174648974#16 174648974#15"/>
    </vehicle>
    <vehicle id="51" depart="142.00">
        <route edges="-24531446#4 -24531446#3 -24531446#2 -24531446#0 -179129155#1 179129153 26676549#0 256682037 28263624#0 231525751#0 231525751#2 231525751#3 231525751#4 230411398#0 230411398#1 -230411398#1"/>
    </vehicle>
    <vehicle id="53" depart="147.00">
        <route edges="28109759 -28109759 -24531446#5 -24531446#4 -24531446#3 -24531446#2 -24531446#0 -179129155#1 179129153 26676549#0 256682037 28263624#0 231525751#0 231525751#2 231525751#3 231525751#4 231525751#5 231525751#7 230411387#0 230411387#1"/>
    </vehicle>
    <vehicle id="54" depart="148.00">
        <route edges="38754835#4 -38754846#1 -38754846#0 -38754845#3 -38754845#2 -38754845#1 -38754845#0 -38754844#1 -38754842#1 -38754842#0 38754833#5 38754833#9 38754833#10 38754991"/>
    </vehicle>
    <vehicle id="55" depart="152.00">
        <route edges="795536152#0 231525751#0 231525751#2 230411391"/>
    </vehicle>
    <vehicle id="60" depart="171.00">
        <route edges="-38753429#11 38753429#11 38753429#12 38754833#0 38754833#1 38754833#4 38754833#5 38754833#9 -38754833#9"/>
    </vehicle>
    <vehicle id="63" depart="176.00">
        <route edges="230411398#1 -230411398#1 -230411398#0 231525751#5 -230411383#2 -230411383#1 -230411383#0 160346394#6 -174648974#17 -174648974#16 -174648974#14 -174648974#13 -174648974#12 -174648974#11 -174648974#10 -174648974#9 -174648974#8 -174648974#6 -174648974#5 -174648974#4 -174648974#3 -174648974#2 -174648974#1 -174648974#0 -24531446#5 99713561#0 99713561#1 99713561#2 99713561#3 -230411364#8 -230411364#7 -230411364#6 719366588 -179129155#6"/>
    </vehicle>
    <vehicle id="64" depart="185.00">
        <route edges="-1053831742 1053831742 -174648974#2 -174648974#1 -174648974#0 -24531446#5 99713561#0 99713561#1 99713561#2 99713561#3 -230411364#8 -230411364#7 -800338311"/>
    </vehicle>
    <vehicle id="69" depart="199.00">
        <route edges="-655800405 38753429#1 38753429#2 38753429#3 655069638 -38754845#5 -38754845#3 -38754845#2 -38754845#1 -38754845#0 -38754844#1 -38754842#1 -38754842#0 38754833#5 -733460034 -38754835#10 -38754835#9 -38755007"/>
    </vehicle>
    <vehicle id="70" depart="211.00">
        <route edges="99713561#0 -99713561#0 -24531446#4 -24531446#3 -24531446#2 -24531446#0 -179129155#1 179129153 179129154#0 -174648974#17 -795261058 795261058"/>
    </vehicle>
    <vehicle id="71" depart="225.00">
        <route edges="38754302 364872807#0 256682038#0 146496119#0 -348244562#2 -348244562#1 348244562#0"/>
    </vehicle>
    <vehicle id="72" depart="227.00">
        <route edges="160512745 -589701037#1 -589701037#0 -256682038#3 -364872807#2 -38754302 -179129155#7 -719366588 -358416654#2 24531446#2 24531446#3 230411363"/>
    </vehicle>
    <vehicle id="73" depart="235.00">
        <route edges="-230411358#3 -230411358#2 -230411360 174648974#5 174648974#6 -28109868#2 -28109868#1 179129153 26676549#0 256682037 28263624#0 231525751#0 231525751#2 231525751#3 231525751#4 231525751#5 -230411384#3 -230411384#1 -230411384#0 160346394#1 230411389"/>
    </vehicle>
    <vehicle id="75" depart="238.00">
        <route edges="38754837#0 -38754837#0 -38754836#6 -38754836#5 -38754836#3 -38754836#2 38754844#0 -38754844#0"/>
    </vehicle>
    <vehicle id="76" depart="240.00">
        <route edges="589701037#0 348244562#2 146496119#1 160346394#0 230411384#0 230411384#1 230411384#3"/>
    </vehicle>
    <vehicle id="77" depart="242.00">
        <route edges="38754840 -38754840 -38754836#5 38754841#0 38754841#1 38754845#2 38754845#3 38754845#5 38754845#6 38753429#4 736419599"/>
    </vehicle>
    <vehicle id="78" depart="250.00">
        <route edges="230411389 -230411389 160346394#2 160346394#3 160346394#4 160346394#5 160346394#6 -174648974#17 -174648974#16 -174648974#14 -174648974#13 -174648974#12 -174648974#11 -174648974#10 -174648974#9 -174648974#8 -28109868#2 -28109868#1 179129153 26676549#0 256682037 256682036 256682038#0 146496119#0 146496119#1"/>
    </vehicle>
    <vehicle id="79" depart="257.00">
        <route edges="-38754844#3 -38754844#1 -38754844#0 -38754836#1 -38754833#3 38754833#1"/>
    </vehicle>
    <vehicle id="80" depart="265.00">
        <route edges="179129155#4 230411364#0 -358416654#2 230411357#0 230411357#1 230411357#2 -230411358#2 -230411360 -174648974#4 -230411361#0 372785406#1 -800338314"/>
    </vehicle>
    <vehicle id="83" depart="271.00">
        <route edges="719366588 179129155#7 38754302 364872807#0 -256682036 28263624#0 231525751#0 231525751#2 231525751#3 231525751#4 230411398#0 230411398#1 230411401 -230411401"/>
    </vehicle>
    <vehicle id="86" depart="276.00">
        <route edges="256682038#0 -256682038#3 -364872807#2 -38754302 -179129155#7 -719366588 230411364#6 230411364#7 230411364#8 -99713561#3 -99713561#2 -99713561#1 -99713561#0 24531446#5 174648974#0 174648974#1 174648974#2"/>
    </vehicle>
    <vehicle id="87" depart="279.00">
        <route edges="38754836#5 -38754836#5 -38754836#3 -38754836#2 -38754836#1 38754833#4 38754833#5 -733460034 -38754835#10 -38754835#9 -38754835#8 -38754835#7 -38754835#6 -38754835#5"/>
    </vehicle>
    <vehicle id="88" depart="280.00">
        <route edges="38754835#11 -38754835#11 -38754835#10 -38754835#9 -38754835#8 -38754835#7 -38754835#6 -38754835#5 -38754835#4 -38754835#3 -38754835#2 -38754835#1 -38754835#0 38753429#1 38753429#2 38753429#3 38753429#4 38753429#6 38753429#7 -38753429#7"/>
    </vehicle>
    <vehicle id="94" depart="289.00">
        <route edges="160346394#2 160346394#3 160346394#4 -231525751#8 -231525751#7 -230411383#2 230411397#0 -795261070"/>
    </vehicle>
    <vehicle id="95" depart="290.00">
        <route edges="-230411363 24531446#4 24531446#5 174648974#0 174648974#1 230411381"/>
    </vehicle>
    <vehicle id="100" depart="298.00">
        <route edges="38753429#7 -38753429#7 -38753429#6 -38753429#4 655069638 -38754845#5 -38754845#3 -38754845#2 -38754841#1 -38754842#3 -38754842#2 38754842#2"/>
    </vehicle>
    <vehicle id="101" depart="304.00">
        <route edges="38754990#0 38754990#1 38754835#2 38754835#3 38754835#4 -38754846#1 -38754846#0 -38754845#3 -38754845#2 -38754845#1 -38754845#0 -38754844#1 -38754842#1 -38754842#0 38754833#5 -733460034"/>
    </vehicle>
    <vehicle id="105" depart="312.00">
        <route edges="-179129155#4 179129155#4 179129155#5 179129155#7 -24566729#1"/>
    </vehicle>
    <vehicle id="106" depart="317.00">
        <route edges="-795261068 795261068 -230411383#0 160346394#6 -174648974#17 -174648974#16 -174648974#14 -174648974#13 -174648974#12 -174648974#11 -174648974#10 -174648974#9 -174648974#8 -174648974#6 -174648974#5 -174648974#4 -174648974#3 -174648974#2 -174648974#1 -174648974#0 -24531446#5 99713561#0 99713561#1 99713561#2 99713561#3 230411368"/>
    </vehicle>
    <vehicle id="107" depart="318.00">
        <route edges="-38754845#2 38754845#2 38754845#3 38754845#5 38754845#6 38753429#4 38753429#6 38753429#7 38753429#8 38753429#9 -38753429#9"/>
    </vehicle>
    <vehicle id="111" depart="323.00">
        <route edges="-38754997 -38753429#7 -38753429#6 -38753429#4 655069638 -38754845#5 -38754845#3 -38754845#2 -38754841#1 -38754841#0 38754836#5 38754840"/>
    </vehicle>
    <vehicle id="112" depart="325.00">
        <route edges="38754989#2 38754990#1 38754835#2 38754835#3 38754835#4 38754835#5 -38754835#5"/>
    </vehicle>
    <vehicle id="117" depart="348.00">
        <route edges="-230411383#2 230411383#2 231525751#7 231525751#8"/>
    </vehicle>
    <vehicle id="120" depart="373.00">
        <route edges="38754990#0 38754990#1 -38754835#1 38754994"/>
    </vehicle>
    <vehicle id="121" depart="377.00">
        <route edges="-179129155#6 -179129155#4 -179129155#3 -179129155#1 179129153 26676549#0 256682037 28263624#0 231525751#0 231525751#2 231525751#3 231525751#4 231525751#5 -230411384#3 -230411384#1 -230411384#0 160346394#1 160346394#2"/>
    </vehicle>
    <vehicle id="122" depart="378.00">
        <route edges="795276266 -38754837#0 -38754836#6 -38754836#5 38754841#0 38754841#1 38754845#2 38754845#3 38754846#0"/>
    </vehicle>
    <vehicle id="124" depart="384.00">
        <route edges="-795276318 795276318 -38754835#5 -38754846#1 -38754846#0 -38754845#3 -38754845#2 -38754841#1 -38754841#0 38754836#5 38754836#6 38754837#0"/>
    </vehicle>
    <vehicle id="127" depart="387.00">
        <route edges="800283587 -174648974#8 -174648974#6 230411358#0 230411358#2 -230411358#2"/>
    </vehicle>
    <vehicle id="130" depart="395.00">
        <route edges="38754835#6 -38754835#6 -38754835#5 -38754846#1 -38754846#0 817131842 -817131842"/>
    </vehicle>
    <vehicle id="134" depart="407.00">
        <route edges="589701037#0 -589701037#0 -256682038#3 -364872807#2 -38754302 -179129155#7 -719366588 230411364#6 230411364#7 -659848302"/>
    </vehicle>
    <vehicle id="141" depart="429.00">
        <route edges="800283586 -174648974#9 -174648974#8 -28109868#2 -28109868#1 179129153 26676549#0 256682037 28263624#0 231525751#0 230411392#0 230411392#1 230411393"/>
    </vehicle>
    <vehicle id="142" depart="432.00">
        <route edges="-230411398#0 231525751#5 -230411383#2 -230411383#1 -230411383#0 160346394#6 -174648974#17 -174648974#16 -174648974#14 -174648974#13 -174648974#12 -174648974#11 -174648974#10 -174648974#9 -174648974#8 -174648974#6 -174648974#5 -174648974#4 -174648974#3 -174648974#2 -174648974#1 -174648974#0 -24531446#5 -24531446#4"/>
    </vehicle>
    <vehicle id="143" depart="440.00">
        <route edges="-174648974#9 -174648974#8 -28109868#2 -28109868#1 179129153 26676549#0 256682037 28263624#0 231525751#0 230411392#0 230411392#1 230411393"/>
    </vehicle>
    <vehicle id="144" depart="445.00">
        <route edges="-230411357#0 230411357#0 230411357#1 -230411359#1 -230411359#0 -230411358#0 174648974#6 -1029498846 800260296 -800260296"/>
    </vehicle>
    <vehicle id="150" depart="473.00">
        <route edges="160346394#0 160346394#1 160346394#2 160346394#3 160346394#4 160346394#5 160346394#6 -174648974#17 -174648974#16 -174648974#14 -174648974#13 -174648974#12 -174648974#11 -174648974#10 -174648974#9 -174648974#8 -1029498846 800260296"/>
    </vehicle>
    <vehicle id="155" depart="498.00">
        <route edges="38754835#3 -38754835#3 -38754835#2 -38754835#1 -38754835#0 38753429#1 38753429#2 38753429#3 38753429#4 38753429#6 38753429#7 38753429#8 38753429#9 38753429#10 38753429#11 38753429#12 -1058823730"/>
    </vehicle>
    <vehicle id="156" depart="502.00">
        <route edges="230411369 -99713561#3 -99713561#2 -99713561#1 -99713561#0 24531446#5 174648974#0 174648974#1 230411381 -230411359#0 -230411358#0 174648974#6 174648974#8 174648974#9 174648974#10 174648974#11"/>
    </vehicle>
    <vehicle id="157" depart="507.00">
        <route edges="230411364#0 -358416654#2 -24531446#0 -179129155#1 179129153 26676549#0 256682037 28263624#0 231525751#0 231525751#2 231525751#3 231525751#4 231525751#5 231525751#7 230411387#0 230411387#1 -230411387#1"/>
    </vehicle>
    <vehicle id="158" depart="515.00">
        <route edges="24354215 -38754302 -179129155#7 -719366588 -358416654#2 230411357#0 230411357#1 230411357#2 -230411358#2 -230411360 -174648974#4 -230411361#0 372785406#1 -372785406#1"/>
    </vehicle>
    <vehicle id="159" depart="518.00">
        <route edges="231525751#3 231525751#4 231525751#5 -230411383#2 -230411383#1 -230411383#0 160346394#6 -174648974#17 -174648974#16 -174648974#14 -174648974#13 -174648974#12 -174648974#11 -174648974#10 -174648974#9 -174648974#8 -28109868#2 -28109868#1 179129153 26676549#0 256682037 256682036 256682038#0"/>
    </vehicle>
    <vehicle id="161" depart="527.00">
        <route edges="-800338311 800338311 -230411364#6 719366588 179129155#7 38754302 364872807#0 256682038#0 146496119#0 -348244562#2 -348244562#1 348244562#0"/>
    </vehicle>
    <vehicle id="162" depart="527.00">
        <route edges="230411362 230411381 230411359#1 -230411357#1"/>
    </vehicle>
    <vehicle id="165" depart="534.00">
        <route edges="-589701037#1 -589701037#0 -256682038#3 -364872807#2 -38754302 -179129155#7 -719366588 -358416654#2 230411357#0 230411357#1 230411357#2 -230411357#2"/>
    </vehicle>
    <vehicle id="173" depart="563.00">
        <route edges="38753429#1 -38753429#1 -38753429#0"/>
    </vehicle>
    <vehicle id="175" depart="572.00">
        <route edges="800338314 -372785406#1 -372785406#0 174648974#4 174648974#5 174648974#6 -28109868#2 -28109868#1 179129153 26676549#0 256682037 256682036 256682038#0 589701037#0 589701037#1 38321920 103269863#0 103269863#1-AddedOnRampEdge 103269863#1"/>
    </vehicle>
    <vehicle id="178" depart="588.00">
        <route edges="230411358#2 -230411358#2 -230411360 174648974#5 174648974#6 -28109868#2 -28109868#1 179129153 26676549#0 256682037 28263624#0 231525751#0 231525751#2 231525751#3 231525751#4 231525751#5 -230411384#3 -230411384#1 -230411384#0 160346394#1 160346394#2 160346394#3 -160346394#3"/>
    </vehicle>
    <vehicle id="180" depart="590.00">
        <route edges="-230411384#0 160346394#1 160346394#2 160346394#3 160346394#4 160346394#5 160346394#6 -174648974#17 -174648974#16 -174648974#14 -174648974#13 -174648974#12 -174648974#11 -174648974#10 -174648974#9 -174648974#8 -174648974#6 -174648974#5 -174648974#4 -174648974#3 -174648974#2 -174648974#1 -174648974#0 -24531446#5 -24531446#4 -24531446#3 -24531446#2 -24531446#0"/>
    </vehicle>
    <vehicle id="181" depart="595.00">
        <route edges="-795261053#0 795261053#0 795261053#1 -174648974#12 -174648974#11 -174648974#10 -174648974#9 174648974#9"/>
    </vehicle>
    <vehicle id="182" depart="596.00">
        <route edges="-160346394#1 160346394#1 160346394#2 160346394#3 160346394#4 160346394#5 160346394#6 -174648974#17 -174648974#16 -174648974#14 -174648974#13 -174648974#12 -174648974#11 -174648974#10 -174648974#9 -174648974#8 -28109868#2 -28109868#1 179129153 26676549#0 256682037 28263624#0 -28263624#1"/>
    </vehicle>
    <vehicle id="183" depart="598.00">
        <route edges="174648974#8 -174648974#8 -174648974#6"/>
    </vehicle>
    <vehicle id="190" depart="611.00">
        <route edges="-24531446#5 99713561#0 99713561#1 99713561#2 99713561#3 -230411364#8 -230411364#7 -230411364#6 719366588 179129155#7 38754302 364872807#0"/>
    </vehicle>
    <vehicle id="191" depart="612.00">
        <route edges="-1058823730 1058823730 -38753429#12 -38753429#11 -38753429#10 -38753429#9 -38753429#8 -38753429#7 -38753429#6 -38753429#4 655069638 -38754845#5"/>
    </vehicle>
    <vehicle id="195" depart="620.00">
        <route edges="-38754836#1 38754833#4 38754833#5 -733460034 -38754835#10 -38754835#9 -38754835#8 -38754835#7 -38754835#6"/>
    </vehicle>
    <vehicle id="196" depart="622.00">
        <route edges="-38754845#3 38754845#3 38754845#5 38754845#6 -38753429#3 -38753429#2 -38753429#1 -38753429#0 38754835#1 38754835#2 38754835#3 38754835#4 38754835#5 -795276318 795276318"/>
    </vehicle>
    <vehicle id="197" depart="637.00">
        <route edges="99713561#0 99713561#1 99713561#2 99713561#3 -230411364#8 -230411364#7 -230411364#6 719366588 179129155#7 38754302 364872807#0 256682038#0 589701037#0 589701037#1 38321920 103269863#0 103269863#1-AddedOnRampEdge"/>
    </vehicle>
    <vehicle id="199" depart="641.00">
        <route edges="800358827 -99713561#3 -99713561#2 -99713561#1 -99713561#0 -24531446#4 -24531446#3 -24531446#2 -24531446#0 -179129155#1 179129153 26676549#0 256682037 28263624#0 231525751#0 231525751#2 231525751#3 231525751#4 231525751#5 231525751#7 231525751#8"/>
    </vehicle>
    <vehicle id="204" depart="665.00">
        <route edges="-230411401 -230411398#1 -230411398#0 231525751#5 -230411384#3 230411395 -230411395"/>
    </vehicle>
    <vehicle id="207" depart="679.00">
        <route edges="372785406#3 -372785406#3 -372785406#1 -372785406#0 174648974#4"/>
    </vehicle>
    <vehicle id="208" depart="680.00">
        <route edges="38754845#1 -38754841#1 -38754842#3 -38754842#2 -38754842#1 -38754842#0 38754833#5 38754833#9 38754833#10 38754833#11"/>
    </vehicle>
    <vehicle id="212" depart="697.00">
        <route edges="38754835#5 -38754835#5 -38754835#4 -38754835#3 -38754835#2 -38754835#1 -38754835#0 38753429#1 38753429#2 38753429#3 38753429#4"/>
    </vehicle>
    <vehicle id="215" depart="704.00">
        <route edges="795276321#1 -795276321#1 38753429#3 -38753429#3"/>
    </vehicle>
    <vehicle id="216" depart="710.00">
        <route edges="160346394#1 160346394#2 160346394#3 160346394#4 -231525751#8 -231525751#7 -231525751#5 230411398#0 230411400 -230411400"/>
    </vehicle>
    <vehicle id="220" depart="715.00">
        <route edges="231525751#0 231525751#2 231525751#3 231525751#4 231525751#5 -230411383#2 -230411383#1 -230411383#0 160346394#6 -174648974#17 -174648974#16 -174648974#14 -174648974#13 -174648974#12 -174648974#11 -174648974#10 -174648974#9 -174648974#8 -174648974#6 -174648974#5 -174648974#4 -230411361#0 372785406#1 800260297 -800260297"/>
    </vehicle>
    <vehicle id="222" depart="720.00">
        <route edges="230411358#3 -230411358#3 -230411357#2 -230411359#1 230411362 -174648974#1 -174648974#0 -24531446#5 99713561#0 99713561#1 99713561#2 99713561#3 230411368"/>
    </vehicle>
    <vehicle id="226" depart="732.00">
        <route edges="179129155#4 -179129155#4 -179129155#3 -179129155#1 179129153 26676549#0 256682037 28263624#0 231525751#0 231525751#2 231525751#3 231525751#4 231525751#5 -230411384#3 -230411384#1 -230411384#0 230411384#0"/>
    </vehicle>
    <vehicle id="228" depart="736.00">
        <route edges="-230411364#7 -230411364#6 -358416654#2 -24531446#0 -179129155#1 179129153 26676549#0 256682037 28263624#0 -795536152#1"/>
    </vehicle>
    <vehicle id="229" depart="743.00">
        <route edges="38754841#1 -38754841#1 -38754841#0 38754836#5 38754836#6 38754836#7 38754839#0 -38754839#0"/>
    </vehicle>
    <vehicle id="231" depart="743.00">
        <route edges="-99713561#0 99713561#0 99713561#1 99713561#2 99713561#3 -230411364#8 -230411364#7 -230411364#6 719366588 -719366588"/>
    </vehicle>
    <vehicle id="233" depart="746.00">
        <route edges="38755008 -38754833#0 -38753429#12 -38753429#11 -38753429#10 -38753429#9 -38753429#8 -38753429#7 -38753429#6 -38753429#4 -38753429#3 -38753429#2 -38753429#1 -38753429#0 38754835#1 38754835#2 38754835#3 38754835#4 38754835#5 -38754835#5"/>
    </vehicle>
    <vehicle id="237" depart="758.00">
        <route edges="-795276316#0 795276316#0 -38754836#8 -38754836#7 -38754836#6 -38754836#5 38754841#0 38754841#1 38754845#2 38754845#3 38754845#5 38754845#6 -38753429#3 -38753429#2 -38753429#1 -38753429#0 38754835#1 -38754835#1"/>
    </vehicle>
    <vehicle id="240" depart="761.00">
        <route edges="99713561#3 -230411364#8 -230411364#7 -230411364#6 719366588 179129155#7 38754302 364872807#0"/>
    </vehicle>
    <vehicle id="242" depart="763.00">
        <route edges="-230411384#0 230411384#0 230411384#1 230411384#3 -231525751#5 230411398#0 230411400 -230411400"/>
    </vehicle>
    <vehicle id="243" depart="763.00">
        <route edges="230411364#0 -358416654#2 -24531446#0 -179129155#1 179129153 26676549#0 256682037 28263624#0 -795536152#1"/>
    </vehicle>
    <vehicle id="244" depart="767.00">
        <route edges="-38753429#6 -38753429#4 655069638 -38754845#5 -38754845#3 -38754845#2 -38754841#1 -38754841#0 -38754836#3 -38754836#2 -38754836#1 38754836#1"/>
    </vehicle>
    <vehicle id="245" depart="772.00">
        <route edges="38754845#5 38754845#6 38753429#4 38753429#6 38753429#7 38754997 -38754997"/>
    </vehicle>
    <vehicle id="246" depart="772.00">
        <route edges="-38754835#9 -38754835#8 -38754835#7 -38754835#6 -38754835#5 -38754835#4 -38754835#3 -661948161"/>
    </vehicle>
    <vehicle id="250" depart="781.00">
        <route edges="-99713561#3 -99713561#2 -99713561#1 -99713561#0 24531446#5 174648974#0 174648974#1 230411381 -230411359#0 -230411358#0 174648974#6 -28109868#2 -28109868#1"/>
    </vehicle>
    <vehicle id="251" depart="782.00">
        <route edges="256682036 256682038#0 146496119#0 -348244562#2 -348244562#1"/>
    </vehicle>
    <vehicle id="254" depart="792.00">
        <route edges="99713561#0 -99713561#0 24531446#5 174648974#0"/>
    </vehicle>
    <vehicle id="258" depart="801.00">
        <route edges="-38754835#10 38754835#10 38754835#11 38754833#10 38754833#11 -38754833#11"/>
    </vehicle>
    <vehicle id="260" depart="804.00">
        <route edges="230411383#0 -230411383#0 160346394#6 -174648974#17 -174648974#16 -174648974#14 -795261060 795261060"/>
    </vehicle>
    <vehicle id="262" depart="814.00">
        <route edges="230411387#1 -230411387#1 -230411387#0 -231525751#7 -230411383#2 -230411383#1 -230411383#0 160346394#6 -174648974#17 -174648974#16 -174648974#14 -174648974#13 -174648974#12 -795261062 795261062"/>
    </vehicle>
    <vehicle id="263" depart="818.00">
        <route edges="348244562#2 -348244562#2 -589701037#0 -256682038#3 -256682036 28263624#0 231525751#0 230411392#0 230411392#1"/>
    </vehicle>
    <vehicle id="266" depart="822.00">
        <route edges="160346394#3 160346394#4 160346394#5 160346394#6 -174648974#17 -174648974#16 -174648974#14 -174648974#13 -174648974#12 -174648974#11 -174648974#10 -174648974#9 -174648974#8 -174648974#6 -174648974#5 -174648974#4 -174648974#3 -174648974#2 -174648974#1 546326459"/>
    </vehicle>
    <vehicle id="267" depart="823.00">
        <route edges="38754990#0 38754990#1 38754835#2 38754835#3 38754835#4 -38754846#1 -38754846#0 -38754845#3 -38754845#2 -38754845#1 -38754845#0 -38754844#1"/>
    </vehicle>
    <vehicle id="269" depart="825.00">
        <route edges="230411384#1 230411384#3 -230411383#2 -230411383#1 230411383#1"/>
    </vehicle>
    <vehicle id="271" depart="827.00">
        <route edges="-38753429#7 -38753429#6 -38753429#4 -38753429#3 -38753429#2 -38753429#1 -38753429#0"/>
    </vehicle>
    <vehicle id="274" depart="832.00">
        <route edges="38754989#2 38754990#1 -38754835#1 -38754835#0 38753429#1 38753429#2 38753429#3 655069638 -38754845#5"/>
    </vehicle>
    <vehicle id="275" depart="834.00">
        <route edges="230411357#0 230411357#1 230411357#2 -230411358#2 -230411360 -174648974#4 -230411361#0 372785406#1 -372785406#1"/>
    </vehicle>
    <vehicle id="277" depart="837.00">
        <route edges="-589701037#1 -589701037#0 -256682038#3 -256682036 -589691606 -26676549#1 179129154#0 -174648974#17 174648974#17"/>
    </vehicle>
    <vehicle id="279" depart="848.00">
        <route edges="-795261060 795261060 -174648974#13 -174648974#12 -174648974#11 -795261065"/>
    </vehicle>
    <vehicle id="282" depart="856.00">
        <route edges="720120467#0 -720120467#0 38753429#10 38753429#11 38753429#12 38754833#0 38754833#1 38754833#4 38754833#5 -733460034 -38754835#10 -38754835#9 -38754835#8 -38755006"/>
    </vehicle>