<?xml version="1.0" encoding="UTF-8"?>

<!-- generated on 2022-07-27 03:09:34 by Eclipse SUMO duarouter Version 1.13.0
<configuration xmlns:xsi="http://www.w3.org/2001/XMLSchema-instance" xsi:noNamespaceSchemaLocation="http://sumo.dlr.de/xsd/duarouterConfiguration.xsd">

    <input>
        <net-file value="osm.net.xml"/>
        <route-files value="trips.trips.xml"/>
    </input>

    <output>
        <output-file value="trips.trips.xml.tmp"/>
        <write-trips value="true"/>
    </output>

    <time>
        <begin value="0"/>
        <end value="3600"/>
    </time>

    <report>
        <no-warnings value="true"/>
        <ignore-errors value="true"/>
        <no-step-log value="true"/>
    </report>

</configuration>
-->

<routes xmlns:xsi="http://www.w3.org/2001/XMLSchema-instance" xsi:noNamespaceSchemaLocation="http://sumo.dlr.de/xsd/routes_file.xsd">
    <trip id="0" depart="0.00" from="-38754841#0" to="-38754833#4"/>
    <trip id="5" depart="10.00" from="-38754835#0" to="-38754843#0"/>
    <trip id="7" depart="17.00" from="-38754990#0" to="-38754837#0"/>
    <trip id="8" depart="24.00" from="-174648974#9" to="-230411388"/>
    <trip id="9" depart="25.00" from="-795261053#1" to="99713561#2"/>
    <trip id="10" depart="26.00" from="372785406#4" to="24531446#3"/>
    <trip id="12" depart="35.00" from="655800405" to="795276317#2"/>
    <trip id="13" depart="36.00" from="160346394#6" to="-230411358#3"/>
    <trip id="19" depart="56.00" from="-795261053#0" to="800373053"/>
    <trip id="20" depart="61.00" from="230411381" to="160346394#2"/>
    <trip id="21" depart="62.00" from="-372785406#5" to="230411364#7"/>
    <trip id="22" depart="69.00" from="-99713561#1" to="99713561#5"/>
    <trip id="23" depart="70.00" from="-38754833#0" to="-38754836#8"/>
    <trip id="24" depart="73.00" from="38754843#0" to="-38754844#4"/>
    <trip id="26" depart="78.00" from="-795276320" to="-38754840"/>
    <trip id="29" depart="85.00" from="38754835#9" to="661948162"/>
    <trip id="30" depart="88.00" from="38753429#4" to="-38755006"/>
    <trip id="32" depart="92.00" from="-38753429#10" to="-38754997"/>
    <trip id="34" depart="100.00" from="795261068" to="174648974#13"/>
    <trip id="36" depart="107.00" from="-38754843#0" to="-795276321#0"/>
    <trip id="37" depart="110.00" from="174648974#15" to="230411390"/>
    <trip id="40" depart="115.00" from="38754833#10" to="38754835#4"/>
    <trip id="42" depart="117.00" from="-38754835#9" to="38754990#2"/>
    <trip id="43" depart="124.00" from="-38754842#3" to="-38754839#0"/>
    <trip id="46" depart="133.00" from="-546326460" to="24531446#2"/>
    <trip id="47" depart="135.00" from="-795261068" to="179129155#7"/>
    <trip id="50" depart="139.00" from="-174648974#1" to="174648974#15"/>
    <trip id="51" depart="142.00" from="-24531446#4" to="-230411398#1"/>
    <trip id="53" depart="147.00" from="28109759" to="230411387#1"/>
    <trip id="54" depart="148.00" from="38754835#4" to="38754991"/>
    <trip id="55" depart="152.00" from="795536152#0" to="230411391"/>
    <trip id="60" depart="171.00" from="-38753429#11" to="-38754833#9"/>
    <trip id="63" depart="176.00" from="230411398#1" to="-179129155#6"/>
    <trip id="64" depart="185.00" from="-1053831742" to="-800338311"/>
    <trip id="69" depart="199.00" from="-655800405" to="-38755007"/>
    <trip id="70" depart="211.00" from="99713561#0" to="795261058"/>
    <trip id="71" depart="225.00" from="38754302" to="348244562#0"/>
    <trip id="72" depart="227.00" from="160512745" to="230411363"/>
    <trip id="73" depart="235.00" from="-230411358#3" to="230411389"/>
    <trip id="75" depart="238.00" from="38754837#0" to="-38754844#0"/>
    <trip id="76" depart="240.00" from="589701037#0" to="230411384#3"/>
    <trip id="77" depart="242.00" from="38754840" to="736419599"/>
    <trip id="78" depart="250.00" from="230411389" to="146496119#1"/>
    <trip id="79" depart="257.00" from="-38754844#3" to="38754833#1"/>
    <trip id="80" depart="265.00" from="179129155#4" to="-800338314"/>
    <trip id="83" depart="271.00" from="719366588" to="-230411401"/>
    <trip id="86" depart="276.00" from="256682038#0" to="174648974#2"/>
    <trip id="87" depart="279.00" from="38754836#5" to="-38754835#5"/>
    <trip id="88" depart="280.00" from="38754835#11" to="-38753429#7"/>
    <trip id="94" depart="289.00" from="160346394#2" to="-795261070"/>
    <trip id="95" depart="290.00" from="-230411363" to="230411381"/>
    <trip id="100" depart="298.00" from="38753429#7" to="38754842#2"/>
    <trip id="101" depart="304.00" from="38754990#0" to="-733460034"/>
    <trip id="105" depart="312.00" from="-179129155#4" to="-24566729#1"/>
    <trip id="106" depart="317.00" from="-795261068" to="230411368"/>
    <trip id="107" depart="318.00" from="-38754845#2" to="-38753429#9"/>
    <trip id="111" depart="323.00" from="-38754997" to="38754840"/>
    <trip id="112" depart="325.00" from="38754989#2" to="-38754835#5"/>
    <trip id="117" depart="348.00" from="-230411383#2" to="231525751#8"/>
    <trip id="120" depart="373.00" from="38754990#0" to="38754994"/>
    <trip id="121" depart="377.00" from="-179129155#6" to="160346394#2"/>
    <trip id="122" depart="378.00" from="795276266" to="38754846#0"/>
    <trip id="124" depart="384.00" from="-795276318" to="38754837#0"/>
    <trip id="127" depart="387.00" from="800283587" to="-230411358#2"/>
    <trip id="130" depart="395.00" from="38754835#6" to="-817131842"/>
    <trip id="134" depart="407.00" from="589701037#0" to="-659848302"/>
    <trip id="141" depart="429.00" from="800283586" to="230411393"/>
    <trip id="142" depart="432.00" from="-230411398#0" to="-24531446#4"/>
    <trip id="143" depart="440.00" from="-174648974#9" to="230411393"/>
    <trip id="144" depart="445.00" from="-230411357#0" to="-800260296"/>
    <trip id="150" depart="473.00" from="160346394#0" to="800260296"/>
    <trip id="155" depart="498.00" from="38754835#3" to="-1058823730"/>
    <trip id="156" depart="502.00" from="230411369" to="174648974#11"/>
    <trip id="157" depart="507.00" from="230411364#0" to="-230411387#1"/>
    <trip id="158" depart="515.00" from="24354215" to="-372785406#1"/>
    <trip id="159" depart="518.00" from="231525751#3" to="256682038#0"/>
    <trip id="161" depart="527.00" from="-800338311" to="348244562#0"/>
    <trip id="162" depart="527.00" from="230411362" to="-230411357#1"/>
    <trip id="165" depart="534.00" from="-589701037#1" to="-230411357#2"/>
    <trip id="173" depart="563.00" from="38753429#1" to="-38753429#0"/>
    <trip id="175" depart="572.00" from="800338314" to="103269863#1"/>
    <trip id="178" depart="588.00" from="230411358#2" to="-160346394#3"/>
    <trip id="180" depart="590.00" from="-230411384#0" to="-24531446#0"/>
    <trip id="181" depart="595.00" from="-795261053#0" to="174648974#9"/>
    <trip id="182" depart="596.00" from="-160346394#1" to="-28263624#1"/>
    <trip id="183" depart="598.00" from="174648974#8" to="-174648974#6"/>
    <trip id="190" depart="611.00" from="-24531446#5" to="364872807#0"/>
    <trip id="191" depart="612.00" from="-1058823730" to="-38754845#5"/>
    <trip id="195" depart="620.00" from="-38754836#1" to="-38754835#6"/>
    <trip id="196" depart="622.00" from="-38754845#3" to="795276318"/>
    <trip id="197" depart="637.00" from="99713561#0" to="103269863#1-AddedOnRampEdge"/>
    <trip id="199" depart="641.00" from="800358827" to="231525751#8"/>
    <trip id="204" depart="665.00" from="-230411401" to="-230411395"/>
    <trip id="207" depart="679.00" from="372785406#3" to="174648974#4"/>
    <trip id="208" depart="680.00" from="38754845#1" to="38754833#11"/>
    <trip id="212" depart="697.00" from="38754835#5" to="38753429#4"/>
    <trip id="215" depart="704.00" from="795276321#1" to="-38753429#3"/>
    <trip id="216" depart="710.00" from="160346394#1" to="-230411400"/>
    <trip id="220" depart="715.00" from="231525751#0" to="-800260297"/>
    <trip id="222" depart="720.00" from="230411358#3" to="230411368"/>
    <trip id="226" depart="732.00" from="179129155#4" to="230411384#0"/>
    <trip id="228" depart="736.00" from="-230411364#7" to="-795536152#1"/>
    <trip id="229" depart="743.00" from="38754841#1" to="-38754839#0"/>
    <trip id="231" depart="743.00" from="-99713561#0" to="-719366588"/>
    <trip id="233" depart="746.00" from="38755008" to="-38754835#5"/>
    <trip id="237" depart="758.00" from="-795276316#0" to="-38754835#1"/>
    <trip id="240" depart="761.00" from="99713561#3" to="364872807#0"/>
    <trip id="242" depart="763.00" from="-230411384#0" to="-230411400"/>
    <trip id="243" depart="763.00" from="230411364#0" to="-795536152#1"/>
    <trip id="244" depart="767.00" from="-38753429#6" to="38754836#1"/>
    <trip id="245" depart="772.00" from="38754845#5" to="-38754997"/>
    <trip id="246" depart="772.00" from="-38754835#9" to="-661948161"/>
    <trip id="250" depart="781.00" from="-99713561#3" to="-28109868#1"/>
    <trip id="251" depart="782.00" from="256682036" to="-348244562#1"/>
    <trip id="254" depart="792.00" from="99713561#0" to="174648974#0"/>
    <trip id="258" depart="801.00" from="-38754835#10" to="-38754833#11"/>
    <trip id="260" depart="804.00" from="230411383#0" to="795261060"/>
    <trip id="262" depart="814.00" from="230411387#1" to="795261062"/>
    <trip id="263" depart="818.00" from="348244562#2" to="230411392#1"/>
    <trip id="266" depart="822.00" from="160346394#3" to="546326459"/>
    <trip id="267" depart="823.00" from="38754990#0" to="-38754844#1"/>
    <trip id="269" depart="825.00" from="230411384#1" to="230411383#1"/>
    <trip id="271" depart="827.00" from="-38753429#7" to="-38753429#0"/>
    <trip id="274" depart="832.00" from="38754989#2" to="-38754845#5"/>
    <trip id="275" depart="834.00" from="230411357#0" to="-372785406#1"/>
    <trip id="277" depart="837.00" from="-589701037#1" to="174648974#17"/>
    <trip id="279" depart="848.00" from="-795261060" to="-795261065"/>
    <trip id="282" depart="856.00" from="720120467#0" to="-38755006"/>
    <trip id="283" depart="858.00" from="38754843#0" to="-38754845#1"/>
    <trip id="284" depart="859.00" from="546326461" to="-230411401"/>
    <trip id="285" depart="866.00" from="-38753429#10" to="38754845#3"/>
    <trip id="287" depart="876.00" from="38754836#1" to="38754835#3"/>
    <trip id="288" depart="877.00" from="795261053#1" to="230411396"/>
    <trip id="289" depart="877.00" from="-38754836#2" to="38754841#1"/>
    <trip id="290" depart="881.00" from="174648974#12" to="230411401"/>
    <trip id="292" depart="890.00" from="348244562#0" to="230411357#2"/>
    <trip id="294" depart="897.00" from="-661948162" to="38754833#0"/>
    <trip id="297" depart="906.00" from="-38754840" to="38754835#10"/>
    <trip id="298" depart="908.00" from="230411392#1" to="230411390"/>
    <trip id="300" depart="909.00" from="-38754996" to="38754845#3"/>
    <trip id="301" depart="921.00" from="655704256" to="-38754836#2"/>
    <trip id="302" depart="921.00" from="99713561#2" to="230411401"/>
    <trip id="304" depart="927.00" from="372785406#3" to="-230411395"/>
    <trip id="305" depart="927.00" from="-38753429#2" to="-38753429#2"/>
    <trip id="307" depart="930.00" from="24354215" to="795261051"/>
    <trip id="309" depart="932.00" from="-38754836#5" to="-38754835#0"/>
    <trip id="310" depart="933.00" from="-358416651" to="-174648974#4"/>
    <trip id="315" depart="946.00" from="-38754836#8" to="-38754989#0"/>
    <trip id="321" depart="958.00" from="-230411383#0" to="230411368"/>
    <trip id="323" depart="966.00" from="-28109759" to="-231525751#4"/>
    <trip id="324" depart="967.00" from="230411391" to="-372785406#5"/>
    <trip id="326" depart="972.00" from="795276268" to="38754846#0"/>
    <trip id="327" depart="990.00" from="-231525751#8" to="231525751#3"/>
    <trip id="333" depart="1015.00" from="24354215" to="-800283587"/>
    <trip id="335" depart="1023.00" from="-230411358#0" to="231525751#3"/>
    <trip id="338" depart="1030.00" from="24531446#2" to="174648974#11"/>
    <trip id="339" depart="1032.00" from="795261070" to="-230411387#0"/>
    <trip id="341" depart="1039.00" from="230411385" to="174648974#12"/>
    <trip id="344" depart="1052.00" from="-38754835#7" to="-38754833#3"/>
    <trip id="345" depart="1058.00" from="-230411360" to="-174648974#0"/>
    <trip id="350" depart="1084.00" from="-174648974#6" to="230411357#2"/>
    <trip id="351" depart="1085.00" from="230411364#8" to="-179129155#7"/>
    <trip id="352" depart="1087.00" from="372785406#3" to="230411401"/>
    <trip id="353" depart="1088.00" from="-800338314" to="99713561#1"/>
    <trip id="354" depart="1093.00" from="-38753429#4" to="38755006"/>
    <trip id="355" depart="1094.00" from="160346394#1" to="230411383#2"/>
    <trip id="358" depart="1101.00" from="-230411401" to="103269863#1"/>
    <trip id="359" depart="1105.00" from="231525751#3" to="24566729#0"/>
    <trip id="360" depart="1117.00" from="-230411383#1" to="-231525751#8"/>
    <trip id="362" depart="1118.00" from="-795261058" to="800358827"/>
    <trip id="367" depart="1136.00" from="-230411395" to="-230411358#2"/>
    <trip id="368" depart="1138.00" from="38754845#2" to="-38754835#7"/>
    <trip id="371" depart="1144.00" from="795261061" to="231525751#7"/>
    <trip id="372" depart="1146.00" from="160346394#4" to="230411384#3"/>
    <trip id="374" depart="1153.00" from="-38754302" to="230411359#0"/>
    <trip id="375" depart="1159.00" from="-38754839#0" to="-38754835#11"/>
    <trip id="377" depart="1168.00" from="-230411397#1" to="546326461"/>
    <trip id="380" depart="1181.00" from="-28109868#2" to="-230411385"/>
    <trip id="385" depart="1193.00" from="38754842#3" to="38754990#2"/>
    <trip id="388" depart="1195.00" from="-770164514" to="-795276285"/>
    <trip id="389" depart="1204.00" from="-179129155#3" to="174648974#11"/>
    <trip id="395" depart="1222.00" from="-256682036" to="-230411383#0"/>
    <trip id="398" depart="1233.00" from="230411401" to="-777797051"/>
    <trip id="399" depart="1234.00" from="38754997" to="38754835#8"/>
    <trip id="400" depart="1238.00" from="174648974#5" to="-230411358#0"/>
    <trip id="402" depart="1242.00" from="795276266" to="-38753429#8"/>
    <trip id="412" depart="1274.00" from="179129155#7" to="-24531446#2"/>
    <trip id="414" depart="1277.00" from="230411364#7" to="-179129155#1"/>
    <trip id="416" depart="1281.00" from="38754835#8" to="-38754995"/>
    <trip id="418" depart="1283.00" from="-38754845#3" to="817131841"/>
    <trip id="419" depart="1285.00" from="38754843#0" to="-38753429#2"/>
    <trip id="421" depart="1288.00" from="28263624#0" to="-230411389"/>
    <trip id="423" depart="1291.00" from="230411369" to="231524908#0"/>
    <trip id="425" depart="1292.00" from="231525751#3" to="-160346394#1"/>
    <trip id="426" depart="1294.00" from="546326460" to="230411397#0"/>
    <trip id="430" depart="1304.00" from="-795261053#1" to="795536152#0"/>
    <trip id="437" depart="1336.00" from="174648974#15" to="-231525751#5"/>
    <trip id="438" depart="1353.00" from="661948161" to="-38754835#2"/>
    <trip id="440" depart="1356.00" from="-24531446#2" to="230411398#0"/>
    <trip id="443" depart="1361.00" from="-38754845#1" to="-733460034"/>
    <trip id="446" depart="1372.00" from="-174648974#11" to="230411387#0"/>
    <trip id="447" depart="1375.00" from="-38753429#4" to="-38754842#0"/>
    <trip id="448" depart="1377.00" from="256682038#0" to="-546326461"/>
    <trip id="450" depart="1386.00" from="800358827" to="230411387#0"/>
    <trip id="452" depart="1393.00" from="160346394#4" to="160346394#1"/>
    <trip id="454" depart="1399.00" from="1053831742" to="-174648974#9"/>
    <trip id="456" depart="1407.00" from="230411392#0" to="-546326460"/>
    <trip id="459" depart="1422.00" from="38754843#0" to="38754837#1"/>
    <trip id="462" depart="1433.00" from="38754843#0" to="720120467#0"/>
    <trip id="463" depart="1434.00" from="-24531446#0" to="-24531446#2"/>
    <trip id="464" depart="1438.00" from="-160346394#1" to="800373053"/>
    <trip id="472" depart="1465.00" from="146496119#1" to="-28109868#2"/>
    <trip id="473" depart="1465.00" from="817131842" to="38754842#1"/>
    <trip id="475" depart="1468.00" from="-230411389" to="-348244562#2"/>
    <trip id="478" depart="1481.00" from="795261060" to="230411392#0"/>
    <trip id="479" depart="1484.00" from="231525751#3" to="-795261060"/>
    <trip id="480" depart="1488.00" from="-230411384#1" to="-230411386"/>
    <trip id="483" depart="1499.00" from="795276321#0" to="-38754836#8"/>
    <trip id="484" depart="1503.00" from="-230411359#1" to="230411357#1"/>
    <trip id="485" depart="1510.00" from="795276320" to="38754843#1"/>
    <trip id="486" depart="1513.00" from="179129155#2" to="795536152#0"/>
    <trip id="493" depart="1522.00" from="-231525751#5" to="230411398#0"/>
    <trip id="494" depart="1523.00" from="312061905#0" to="-230411399"/>
    <trip id="495" depart="1524.00" from="-38754846#0" to="38754837#0"/>
    <trip id="498" depart="1534.00" from="160379981" to="-160346394#0"/>
    <trip id="499" depart="1535.00" from="231525751#2" to="719366588"/>
    <trip id="500" depart="1539.00" from="-372785406#0" to="160346394#1"/>
    <trip id="508" depart="1566.00" from="800338313" to="-174648974#4"/>
    <trip id="509" depart="1567.00" from="179129153" to="103269863#1-AddedOnRampEdge"/>
    <trip id="510" depart="1569.00" from="38753429#2" to="795276318"/>
    <trip id="514" depart="1575.00" from="-795276321#0" to="-38754837#1"/>
    <trip id="520" depart="1588.00" from="720120467#1" to="-817131842"/>
    <trip id="524" depart="1599.00" from="-661948161" to="-817131841"/>
    <trip id="528" depart="1615.00" from="-179129155#7" to="230411393"/>
    <trip id="529" depart="1617.00" from="179129155#5" to="-800283586"/>
    <trip id="533" depart="1626.00" from="795317202" to="38754833#9"/>
    <trip id="535" depart="1630.00" from="38754844#4" to="38754845#5"/>
    <trip id="537" depart="1635.00" from="38754302" to="230411359#0"/>
    <trip id="544" depart="1654.00" from="38754842#3" to="-38754833#4"/>
    <trip id="546" depart="1657.00" from="38754835#6" to="38754834"/>
    <trip id="550" depart="1660.00" from="38754990#0" to="795276316#1"/>
    <trip id="551" depart="1663.00" from="230411369" to="-160346394#5"/>
    <trip id="556" depart="1676.00" from="-800283585" to="230411399"/>
    <trip id="558" depart="1677.00" from="795261068" to="800338311"/>
    <trip id="559" depart="1677.00" from="800283587" to="-546326460"/>
    <trip id="561" depart="1685.00" from="-179129155#4" to="-230411358#2"/>
    <trip id="563" depart="1691.00" from="-795536152#1" to="795261059"/>
    <trip id="565" depart="1695.00" from="24531446#3" to="230411400"/>
    <trip id="568" depart="1700.00" from="-655704256" to="-661948161"/>
    <trip id="572" depart="1711.00" from="99713561#3" to="-795261070"/>
    <trip id="575" depart="1718.00" from="312061905#0" to="546326459"/>
    <trip id="576" depart="1725.00" from="-38753429#6" to="-795276285"/>
    <trip id="577" depart="1730.00" from="-256682038#3" to="-231525751#1"/>
    <trip id="579" depart="1735.00" from="795276316#1" to="38753429#10"/>
    <trip id="580" depart="1747.00" from="800260296" to="230411368"/>
    <trip id="581" depart="1754.00" from="38754844#1" to="-38754835#11"/>
    <trip id="583" depart="1762.00" from="-179129155#4" to="230411393"/>
    <trip id="589" depart="1796.00" from="-230411398#3" to="589701037#1"/>
    <trip id="592" depart="1803.00" from="-719366588" to="358416651"/>
    <trip id="593" depart="1805.00" from="546326461" to="-364872807#2"/>
    <trip id="595" depart="1810.00" from="24566729#0" to="24531446#2"/>
    <trip id="597" depart="1813.00" from="800283585" to="230411398#3"/>
    <trip id="601" depart="1826.00" from="-589701037#0" to="-99713561#2"/>
    <trip id="602" depart="1832.00" from="-230411361#0" to="-174648974#8"/>
    <trip id="604" depart="1834.00" from="160512745" to="-230411390"/>
    <trip id="605" depart="1836.00" from="655704256" to="-38754844#3"/>
    <trip id="606" depart="1840.00" from="179129155#2" to="-160346394#0"/>
    <trip id="608" depart="1850.00" from="-28109868#1" to="-24531446#3"/>
    <trip id="609" depart="1853.00" from="-160346394#1" to="230411388"/>
    <trip id="611" depart="1861.00" from="-38754843#1" to="-38753429#1"/>
    <trip id="613" depart="1871.00" from="-174648974#0" to="661911647"/>
    <trip id="615" depart="1875.00" from="655800405" to="-38754836#9"/>
    <trip id="616" depart="1878.00" from="-230411387#0" to="230411383#0"/>
    <trip id="617" depart="1880.00" from="-230411387#0" to="230411388"/>
    <trip id="619" depart="1886.00" from="-736419599" to="38754833#5"/>
    <trip id="620" depart="1890.00" from="-231525751#8" to="-160346394#2"/>
    <trip id="623" depart="1893.00" from="230411398#3" to="372785406#1"/>
    <trip id="629" depart="1906.00" from="231525751#0" to="-230411398#0"/>
    <trip id="633" depart="1928.00" from="733460034" to="720120467#0"/>
    <trip id="635" depart="1944.00" from="38754836#5" to="-38754835#6"/>
    <trip id="637" depart="1949.00" from="-28109868#2" to="-231525751#7"/>
    <trip id="638" depart="1950.00" from="-38754845#5" to="-795276268"/>
    <trip id="645" depart="1974.00" from="28109868#0" to="230411396"/>
    <trip id="651" depart="1989.00" from="-230411398#3" to="-230411358#0"/>
    <trip id="652" depart="1994.00" from="795276285" to="-795317202"/>
    <trip id="659" depart="2005.00" from="-230411357#1" to="-174648974#17"/>
    <trip id="660" depart="2006.00" from="-230411398#3" to="795261061"/>
    <trip id="661" depart="2007.00" from="24531446#4" to="179129155#2"/>
    <trip id="662" depart="2008.00" from="38754833#11" to="-38754835#1"/>
    <trip id="664" depart="2012.00" from="230411384#3" to="-230411358#2"/>
    <trip id="666" depart="2019.00" from="230411383#0" to="231525751#8"/>
    <trip id="669" depart="2031.00" from="-174648974#14" to="-230411392#0"/>
    <trip id="672" depart="2035.00" from="24531446#4" to="-777797051"/>
    <trip id="673" depart="2036.00" from="795276269" to="-38754845#2"/>
    <trip id="674" depart="2039.00" from="-231525751#8" to="795261068"/>
    <trip id="675" depart="2041.00" from="230411393" to="-372785406#5"/>
    <trip id="676" depart="2043.00" from="38754837#0" to="655069638"/>
    <trip id="677" depart="2044.00" from="146496119#0" to="231524908#0"/>
    <trip id="679" depart="2049.00" from="-38754833#3" to="-38753429#4"/>
    <trip id="682" depart="2059.00" from="-230411359#0" to="-174648974#4"/>
    <trip id="683" depart="2063.00" from="-38754845#1" to="38754844#2"/>
    <trip id="684" depart="2074.00" from="38754842#0" to="38754845#5"/>
    <trip id="686" depart="2081.00" from="230411364#6" to="-800338313"/>
    <trip id="687" depart="2081.00" from="-230411387#0" to="174648974#9"/>
    <trip id="688" depart="2082.00" from="26676549#0" to="1055011759"/>
    <trip id="691" depart="2085.00" from="179129155#4" to="103269863#1-AddedOnRampEdge"/>
    <trip id="693" depart="2089.00" from="-231525751#7" to="-230411357#2"/>
    <trip id="696" depart="2106.00" from="-230411392#0" to="795261060"/>
    <trip id="701" depart="2115.00" from="-1058823730" to="38754835#5"/>
    <trip id="702" depart="2117.00" from="-795276319" to="817131842"/>
    <trip id="705" depart="2125.00" from="-38754833#3" to="-38754845#0"/>
    <trip id="706" depart="2126.00" from="179129155#4" to="99713561#0"/>
    <trip id="707" depart="2137.00" from="-770164514" to="-38754844#3"/>
    <trip id="708" depart="2138.00" from="795261065" to="230411364#8"/>
    <trip id="709" depart="2141.00" from="38754990#1" to="-38755006"/>
    <trip id="710" depart="2145.00" from="589701037#0" to="-230411358#3"/>
    <trip id="712" depart="2148.00" from="38753429#1" to="-38754846#0"/>
    <trip id="713" depart="2151.00" from="800283586" to="-795261068"/>
    <trip id="715" depart="2158.00" from="-231525751#2" to="103269863#1"/>
    <trip id="717" depart="2162.00" from="795261062" to="-795261053#1"/>
    <trip id="721" depart="2180.00" from="-230411358#3" to="28109759"/>
    <trip id="725" depart="2190.00" from="174648974#4" to="-160346394#0"/>
    <trip id="726" depart="2195.00" from="-661948162" to="-38754999"/>
    <trip id="727" depart="2195.00" from="-99713561#1" to="28109868#0"/>
    <trip id="729" depart="2203.00" from="-795276321#1" to="795276267"/>
    <trip id="730" depart="2212.00" from="-800260296" to="372785406#3"/>
    <trip id="733" depart="2224.00" from="-230411357#1" to="174648974#12"/>
    <trip id="734" depart="2238.00" from="546326459" to="-358416654#2"/>
    <trip id="736" depart="2252.00" from="800283587" to="-358416654#2"/>
    <trip id="737" depart="2252.00" from="800338313" to="230411397#1"/>
    <trip id="739" depart="2259.00" from="160512744#0" to="231525751#2"/>
    <trip id="740" depart="2260.00" from="230411364#8" to="230411357#2"/>
    <trip id="741" depart="2263.00" from="-230411357#2" to="795261053#0"/>
    <trip id="742" depart="2264.00" from="230411359#0" to="174648974#12"/>
    <trip id="743" depart="2271.00" from="800338313" to="160346394#4"/>
    <trip id="744" depart="2273.00" from="-38754845#1" to="795276317#1"/>
    <trip id="745" depart="2277.00" from="38754843#1" to="-38754835#2"/>
    <trip id="747" depart="2281.00" from="-38754836#3" to="-795276319"/>
    <trip id="749" depart="2286.00" from="230411387#1" to="-230411361#0"/>
    <trip id="750" depart="2287.00" from="230411357#2" to="-230411358#0"/>
    <trip id="751" depart="2289.00" from="-795261051" to="800260297"/>
    <trip id="752" depart="2290.00" from="795261068" to="-348244562#2"/>
    <trip id="753" depart="2297.00" from="174648974#13" to="-24531446#5"/>
    <trip id="760" depart="2326.00" from="160512744#0" to="-230411364#6"/>
    <trip id="763" depart="2339.00" from="-230411387#1" to="-174648974#10"/>
    <trip id="766" depart="2356.00" from="-174648974#5" to="-179129155#4"/>
    <trip id="768" depart="2358.00" from="-160346394#5" to="174648974#8"/>
    <trip id="769" depart="2365.00" from="230411357#1" to="-589691606"/>
    <trip id="771" depart="2370.00" from="-795276318" to="795276267"/>
    <trip id="772" depart="2371.00" from="230411386" to="28109759"/>
    <trip id="776" depart="2385.00" from="312061905#2" to="174648974#6"/>
    <trip id="777" depart="2386.00" from="38754842#3" to="38754844#2"/>
    <trip id="778" depart="2389.00" from="38754302" to="-795261051"/>
    <trip id="779" depart="2395.00" from="-372785406#0" to="-372785406#1"/>
    <trip id="780" depart="2397.00" from="-28109759" to="-358416651"/>
    <trip id="783" depart="2400.00" from="38754844#4" to="38754835#11"/>
    <trip id="787" depart="2405.00" from="28109868#0" to="230411387#1"/>
    <trip id="791" depart="2416.00" from="795261059" to="230411401"/>
    <trip id="794" depart="2421.00" from="99713561#2" to="-372785406#0"/>
    <trip id="797" depart="2433.00" from="-231525751#2" to="800260295#0"/>
    <trip id="804" depart="2451.00" from="-230411361#1" to="230411368"/>
    <trip id="808" depart="2454.00" from="-38754990#0" to="795276317#0"/>
    <trip id="810" depart="2457.00" from="-795276285" to="38753429#9"/>
    <trip id="813" depart="2467.00" from="-24531446#4" to="230411387#1"/>
    <trip id="817" depart="2481.00" from="38754994" to="-38754843#1"/>
    <trip id="818" depart="2482.00" from="-795261060" to="-99713561#1"/>
    <trip id="821" depart="2487.00" from="-24566729#1" to="103269863#1"/>
    <trip id="822" depart="2488.00" from="230411387#0" to="-777797051"/>
    <trip id="827" depart="2498.00" from="24354215" to="230411384#0"/>
    <trip id="831" depart="2516.00" from="231525751#0" to="230411384#0"/>
    <trip id="832" depart="2518.00" from="-800338310" to="230411359#0"/>
    <trip id="833" depart="2518.00" from="-38754844#0" to="-795276317#1"/>
    <trip id="834" depart="2523.00" from="-770164514" to="-38754833#8"/>
    <trip id="837" depart="2536.00" from="-800260297" to="230411387#1"/>
    <trip id="838" depart="2537.00" from="348244562#0" to="795261062"/>
    <trip id="839" depart="2537.00" from="-795261053#1" to="38754302"/>
    <trip id="840" depart="2543.00" from="-99713561#2" to="230411364#7"/>
    <trip id="841" depart="2544.00" from="-38754842#2" to="733460034"/>
    <trip id="846" depart="2548.00" from="800338310" to="99713561#1"/>
    <trip id="848" depart="2564.00" from="-28109868#2" to="-174648974#17"/>
    <trip id="855" depart="2581.00" from="38754839#1" to="38753429#10"/>
    <trip id="856" depart="2586.00" from="-179129155#1" to="-160346394#2"/>
    <trip id="860" depart="2600.00" from="800283586" to="-230411357#0"/>
    <trip id="861" depart="2600.00" from="-38754833#11" to="38754844#0"/>
    <trip id="863" depart="2610.00" from="231525751#8" to="-800338313"/>
    <trip id="864" depart="2611.00" from="-795536152#1" to="-24531446#2"/>
    <trip id="869" depart="2621.00" from="160512745" to="28263624#0"/>
    <trip id="874" depart="2629.00" from="-38754845#3" to="38753429#7"/>
    <trip id="877" depart="2643.00" from="174648974#2" to="-589691606"/>
    <trip id="879" depart="2649.00" from="-38754845#5" to="-795276321#1"/>
    <trip id="880" depart="2650.00" from="-38754836#1" to="-655800405"/>
    <trip id="883" depart="2655.00" from="-38754836#7" to="-38754845#0"/>
    <trip id="884" depart="2659.00" from="230411364#0" to="230411387#1"/>
    <trip id="886" depart="2668.00" from="38754841#1" to="655704256"/>
    <trip id="891" depart="2674.00" from="160346394#6" to="24566729#0"/>
    <trip id="892" depart="2675.00" from="230411387#1" to="-230411397#0"/>
    <trip id="895" depart="2684.00" from="-795276317#2" to="-795276319"/>
    <trip id="896" depart="2685.00" from="-99713561#1" to="179129155#7"/>
    <trip id="898" depart="2686.00" from="777797051" to="800260295#0"/>
    <trip id="899" depart="2690.00" from="231525751#4" to="-659848302"/>