<?xml version="1.0" encoding="UTF-8"?>

<!-- generated on 2022-07-26 21:43:18 by Eclipse SUMO duarouter Version 1.13.0
<configuration xmlns:xsi="http://www.w3.org/2001/XMLSchema-instance" xsi:noNamespaceSchemaLocation="http://sumo.dlr.de/xsd/duarouterConfiguration.xsd">

    <input>
        <net-file value="osm.net.xml"/>
        <route-files value="trips.trips.xml"/>
    </input>

    <output>
        <output-file value="dua.rou.xml"/>
        <alternatives-output value="dua.rou.alt.xml"/>
    </output>

    <time>
        <begin value="0"/>
        <end value="3600"/>
    </time>

    <report>
        <no-warnings value="true"/>
        <ignore-errors value="true"/>
        <no-step-log value="true"/>
    </report>

</configuration>
-->

<routes xmlns:xsi="http://www.w3.org/2001/XMLSchema-instance" xsi:noNamespaceSchemaLocation="http://sumo.dlr.de/xsd/routes_file.xsd">
    <vehicle id="3" depart="1.00">
        <route edges="174648974#11 174648974#12 174648974#13 -174648974#13"/>
    </vehicle>
    <vehicle id="4" depart="1.00">
        <route edges="231525751#2 -231525751#2 -231525751#1 -28263624#1 -589691606 -26676549#1 231524908#0 28109868#0 28109868#2 -174648974#6 -174648974#5 174648974#5"/>
    </vehicle>
    <vehicle id="8" depart="3.00">
        <route edges="-230411383#2 230411383#2 -230411384#3 -230411384#1"/>
    </vehicle>
    <vehicle id="9" depart="3.00">
        <route edges="38754841#0 38754841#1 38754845#2 38754845#3 38754845#5 38754845#6 -38753429#3 -38753429#2 38753429#2"/>
    </vehicle>
    <vehicle id="10" depart="4.00">
        <route edges="800283586 -174648974#9 -174648974#8 -28109868#2 -28109868#1 179129153 26676549#0 795261051 -795261051"/>
    </vehicle>
    <vehicle id="12" depart="5.00">
        <route edges="312061905#0 312061905#2 231524908#0 28109868#0 28109868#2 174648974#8 174648974#9 -174648974#9"/>
    </vehicle>
    <vehicle id="15" depart="6.00">
        <route edges="-734354815#0 734354815#0 734354815#1 -734354815#1"/>
    </vehicle>
    <vehicle id="16" depart="6.00">
        <route edges="-38754839#0 -38754836#7 -38754836#6 -38754836#5 38754841#0 38754841#1 38754845#2 38754845#3 38754845#5 38754845#6 38753429#4 38753429#6 38753429#7 38753429#8 -795276269 795276269"/>
    </vehicle>
    <vehicle id="17" depart="6.00">
        <route edges="230411391 -230411392#0 -231525751#1 -28263624#1 256682036 256682038#0 146496119#0 -348244562#2 -348244562#1"/>
    </vehicle>
    <vehicle id="18" depart="7.00">
        <route edges="-28109868#1 28109868#0 28109868#2 174648974#8 174648974#9 174648974#10 174648974#11 174648974#12 -795261053#1 -795261053#0"/>
    </vehicle>
    <vehicle id="19" depart="7.00">
        <route edges="230411359#1 -230411359#1 230411362 -174648974#1 -174648974#0 -24531446#5 24531446#5"/>
    </vehicle>
    <vehicle id="22" depart="9.00">
        <route edges="231525751#5 -230411383#2 -230411383#1 -795261068"/>
    </vehicle>
    <vehicle id="23" depart="10.00">
        <route edges="-38754837#1 -38754837#0 -38754836#6 -38754836#5 -38754836#3 -38754836#2 -38754836#1 38754833#4 38754833#5 -733460034 -38754835#10 -38754835#9 -38754835#8"/>
    </vehicle>
    <vehicle id="26" depart="11.00">
        <route edges="-230411383#1 -230411383#0 160346394#6 -174648974#17 -174648974#16 -174648974#14 -174648974#13 -174648974#12 -174648974#11 -174648974#10 -174648974#9"/>
    </vehicle>
    <vehicle id="28" depart="12.00">
        <route edges="-230411357#2 -230411359#1 -230411359#0 -230411358#0 174648974#6 174648974#8 174648974#9 174648974#10 174648974#11 174648974#12 -795261053#1"/>
    </vehicle>
    <vehicle id="30" depart="13.00">
        <route edges="372785406#4 -372785406#5 -372785406#3 -372785406#1 -372785406#0 -174648974#3 -174648974#2 -174648974#1 -174648974#0 -24531446#5 -24531446#4 -24531446#3 24531446#3"/>
    </vehicle>
    <vehicle id="33" depart="15.00">
        <route edges="174648974#0 174648974#1 174648974#2 174648974#3 174648974#4 174648974#5 174648974#6 -28109868#2 -28109868#1 179129153 26676549#0 256682037 256682036 -364872807#2"/>
    </vehicle>
    <vehicle id="36" depart="16.00">
        <route edges="179129154#0 -174648974#17 -174648974#16 -174648974#14 -174648974#13 -174648974#12 -174648974#11 -174648974#10 -174648974#9 -174648974#8 -1029498846"/>
    </vehicle>
    <vehicle id="37" depart="17.00">
        <route edges="-174648974#1 -174648974#0 -24531446#5 -24531446#4 -24531446#3 -24531446#2 -24531446#0 -179129155#1 179129153 26676549#0 256682037 28263624#0 231525751#0 231525751#2 231525751#3 231525751#4 231525751#5 -230411383#2 230411397#0 -795261070 795261070"/>
    </vehicle>
    <vehicle id="39" depart="18.00">
        <route edges="160512744#0 160512744#0-AddedOffRampEdge 160512744#1 160512745 -589701037#1 -589701037#0 -256682038#3 -256682036 -589691606 -26676549#1 231524908#0 28109868#0 28109868#2 -174648974#6 230411358#0 230411358#2 230411358#3 -230411358#3"/>
    </vehicle>
    <vehicle id="43" depart="20.00">
        <route edges="-38753429#6 -38753429#4 -38753429#3 -38753429#2 -38753429#1 -38753429#0 38754835#1 38754835#2 -661948161 -38754989#0"/>
    </vehicle>
    <vehicle id="46" depart="21.00">
        <route edges="-38754835#10 38754835#10 38754835#11 -38754833#9 -38754833#8 -38754833#4"/>
    </vehicle>
    <vehicle id="53" depart="24.00">
        <route edges="24531446#2 24531446#3 24531446#4 99713561#0 99713561#1 99713561#2 99713561#3 99713561#5 800358827"/>
    </vehicle>
    <vehicle id="56" depart="26.00">
        <route edges="-38754842#1 -38754842#0 38754833#5 -733460034 -38754835#10 -38754835#9"/>
    </vehicle>
    <vehicle id="60" depart="28.00">
        <route edges="-230411357#0 24531446#2 24531446#3 24531446#4 24531446#5 174648974#0 174648974#1 174648974#2 174648974#3 174648974#4 174648974#5 174648974#6 174648974#8 174648974#9 174648974#10 174648974#11 174648974#12 -795261053#1 -795261053#0"/>
    </vehicle>
    <vehicle id="63" depart="30.00">
        <route edges="372785406#1 -372785406#1 -372785406#0 -174648974#3 -174648974#2 -174648974#1 -174648974#0 -24531446#5"/>
    </vehicle>
    <vehicle id="64" depart="30.00">
        <route edges="800260297 -800260297 -372785406#1 -372785406#0 174648974#4 174648974#5 230411358#0 230411359#0"/>
    </vehicle>
    <vehicle id="67" depart="31.00">
        <route edges="795536152#0 -28263624#1 -589691606 -26676549#1 231524908#0 179129155#1 24531446#0 24531446#2 24531446#3 230411363 -230411363"/>
    </vehicle>
    <vehicle id="68" depart="31.00">
        <route edges="230411385 -230411385 160346394#3 160346394#4 -231525751#8 231525751#8"/>
    </vehicle>
    <vehicle id="70" depart="32.00">
        <route edges="230411384#3 -230411384#3 -230411384#1 -230411384#0 160346394#1 160346394#2 230411385"/>
    </vehicle>
    <vehicle id="71" depart="32.00">
        <route edges="230411383#0 -230411383#0 160346394#6 -174648974#17 -174648974#16 -174648974#14 -174648974#13 -174648974#12 -174648974#11 -174648974#10 -174648974#9 -174648974#8 -174648974#6 -174648974#5 -174648974#4 -174648974#3 -174648974#2 -174648974#1 -174648974#0 174648974#0"/>
    </vehicle>
    <vehicle id="75" depart="34.00">
        <route edges="99713561#5 800358827 -99713561#3 -99713561#2 99713561#2"/>
    </vehicle>
    <vehicle id="76" depart="34.00">
        <route edges="-38754833#10 -38754833#9 -38754833#8 -38754833#4 38754836#1 38754836#2 38754836#3 38754836#5 38754836#6 38754837#0 -38754837#0"/>
    </vehicle>
    <vehicle id="81" depart="37.00">
        <route edges="-230411395 230411384#3 231525751#7 230411387#0 230411387#1 -230411387#1"/>
    </vehicle>
    <vehicle id="84" depart="38.00">
        <route edges="160512744#0 160512744#0-AddedOffRampEdge 160512744#1 160512745 -589701037#1 -589701037#0 -256682038#3 -256682036 28263624#0 231525751#0 231525751#2 231525751#3 777797051"/>
    </vehicle>
    <vehicle id="85" depart="39.00">
        <route edges="-795276321#1 38753429#3 655069638 -38754845#5 -38754845#3 -38754845#2 -38754841#1"/>
    </vehicle>
    <vehicle id="88" depart="40.00">
        <route edges="-160346394#2 160346394#2 160346394#3 160346394#4 160346394#5 160346394#6 -174648974#17 -174648974#16 -174648974#14 -174648974#13 -174648974#12 -174648974#11 -174648974#10 -174648974#9 -174648974#8 -174648974#6 230411358#0 -230411360"/>
    </vehicle>
    <vehicle id="93" depart="42.00">
        <route edges="661948161 -38754835#2 -38754835#1 -38754835#0 38753429#1 38753429#2 38753429#3 38753429#4 38753429#6 38753429#7 38753429#8 -795276269"/>
    </vehicle>
    <vehicle id="94" depart="43.00">
        <route edges="-24566729#1 24566729#0 38754302 364872807#0 -256682036 28263624#0 231525751#0 231525751#2 231525751#3 231525751#4 231525751#5 -230411383#2 230411397#0 -795261070 795261070"/>
    </vehicle>
    <vehicle id="95" depart="44.00">
        <route edges="659848302 230411364#8 -99713561#3 -99713561#2 -99713561#1 -99713561#0 24531446#5 174648974#0 174648974#1 174648974#2 174648974#3 174648974#4 174648974#5 174648974#6 174648974#8 174648974#9 174648974#10 174648974#11 174648974#12 -174648974#12"/>
    </vehicle>
    <vehicle id="97" depart="44.00">
        <route edges="38755008 38754833#1 -38754999 38754842#1"/>
    </vehicle>
    <vehicle id="100" depart="46.00">
        <route edges="38754836#8 38754836#9 -38754836#9 -38754836#8 -38754836#7 -38754836#6 -38754836#5 38754841#0 38754841#1 38754845#2 38754845#3 38754845#5 38754845#6 -38753429#3 -38753429#2 -38753429#1 -38753429#0 -38754835#0"/>
    </vehicle>
    <vehicle id="101" depart="46.00">
        <route edges="-38753429#11 -38753429#10 -38753429#9 -38753429#8 -38753429#7 -38753429#6 -38753429#4 -38753429#3 -38753429#2 -38753429#1 -38753429#0 38754835#1 38754835#2 38754835#3 38754835#4 38754835#5 38754835#6 38754835#7 -38755006"/>
    </vehicle>
    <vehicle id="108" depart="50.00">
        <route edges="-1029498846 800260295#1 -28109868#2 -28109868#1 179129153 26676549#0 256682037 28263624#0 231525751#0 231525751#2 231525751#3 231525751#4 231525751#5 -230411383#2 -230411383#1 -795261068 795261068"/>
    </vehicle>
    <vehicle id="111" depart="51.00">
        <route edges="-38755008 38755008 -38754833#0 -38753429#12 -38753429#11 -38753429#10 -38753429#9 -38753429#8 -38753429#7 -38753429#6 -38753429#4 -38753429#3 -38753429#2 -38753429#1 -38753429#0 38754835#1 -38754990#1 -38754989#2"/>
    </vehicle>
    <vehicle id="112" depart="52.00">
        <route edges="-38754845#3 38754845#3 38754845#5 38754845#6 -38753429#3 -38753429#2 -38753429#1 -38753429#0 38754835#1 38754835#2 38754835#3 38754835#4 -38754846#1"/>
    </vehicle>
    <vehicle id="113" depart="52.00">
        <route edges="-795276269 795276269 -38753429#8 -38753429#7 -38753429#6 -38753429#4 655069638 -38754845#5 -38754845#3 -38754845#2 -38754845#1 -38754845#0 38754844#2 38754844#4 -38754844#4"/>
    </vehicle>
    <vehicle id="114" depart="52.00">
        <route edges="-795276321#0 795276321#0 38753429#3 655069638 -38754845#5 -38754845#3 -38754845#2 -38754841#1 -38754841#0 38754836#5 38754836#6 38754836#7 38754836#8 -795276316#0 795276316#0"/>
    </vehicle>
    <vehicle id="116" depart="53.00">
        <route edges="230411358#0 -230411358#0 174648974#6 -1029498846"/>
    </vehicle>
    <vehicle id="117" depart="53.00">
        <route edges="-800260296 800260295#1 -174648974#6 230411358#0 230411359#0 230411359#1"/>
    </vehicle>
    <vehicle id="120" depart="54.00">
        <route edges="-348244562#1 348244562#0 -589701037#0 -256682038#3 -364872807#2 -38754302 -179129155#7 -719366588 230411364#6 -230411364#6"/>
    </vehicle>
    <vehicle id="121" depart="55.00">
        <route edges="230411400 -230411400 -230411398#0 231525751#5 -230411383#2 -230411383#1 -230411383#0 160346394#6 -174648974#17 -174648974#16 -174648974#14 -174648974#13 -174648974#12 -174648974#11 -174648974#10 -174648974#9 -174648974#8 -174648974#6 -174648974#5 -174648974#4 -174648974#3 -174648974#2 -174648974#1 546326459 -546326459"/>
    </vehicle>
    <vehicle id="126" depart="56.00">
        <route edges="312061905#0 312061905#2 26676549#0 256682037 28263624#0 231525751#0 231525751#2 231525751#3 231525751#4 231525751#5 -230411384#3 -230411384#1 -230411384#0 160346394#1"/>
    </vehicle>
    <vehicle id="132" depart="59.00">
        <route edges="795276318 -38754835#5 -38754835#4 -38754835#3 -38754835#2 -38754835#1 -38754835#0 38753429#1 38753429#2 38753429#3 38753429#4 38753429#6 38753429#7 38753429#8 38753429#9 720120467#0 720120467#1"/>
    </vehicle>
    <vehicle id="133" depart="59.00">
        <route edges="372785406#3 -372785406#3 -372785406#1 -372785406#0 174648974#4 174648974#5 174648974#6 -28109868#2 -28109868#1 179129153 26676549#0 256682037 28263624#0 231525751#0 231525751#2 231525751#3 231525751#4 231525751#5 -230411383#2 -230411383#1 -230411383#0 160346394#6"/>
    </vehicle>
    <vehicle id="138" depart="61.00">
        <route edges="-38754843#1 -38754843#0 38754836#3 38754836#5 38754836#6 38754836#7 38754839#0 38754839#1 -38754839#1"/>
    </vehicle>
    <vehicle id="139" depart="61.00">
        <route edges="179129155#7 38754302 364872807#0 -256682036 28263624#0 231525751#0 231525751#2 231525751#3 231525751#4 -231525751#4"/>
    </vehicle>
    <vehicle id="140" depart="62.00">
        <route edges="28109868#2 -28109868#2 -28109868#1 179129153 26676549#0 256682037 256682036 256682038#0 146496119#0 -348244562#2 -348244562#1 348244562#0"/>
    </vehicle>
    <vehicle id="142" depart="62.00">
        <route edges="-38753429#9 -38753429#8 -38753429#7 -38753429#6 -38753429#4 -38753429#3 -38753429#2 -38753429#1 -38753429#0 38754835#1 38754835#2 38754835#3 38754835#4 38754835#5 -795276318"/>
    </vehicle>
    <vehicle id="144" depart="63.00">
        <route edges="-795261058 795261058 -174648974#16 -174648974#14 -174648974#13 -174648974#12 -174648974#11 -174648974#10 -174648974#9 -174648974#8 -28109868#2 -28109868#1 179129153 26676549#0 256682037 28263624#0 231525751#0 231525751#2 231525751#3 231525751#4 231525751#5 -230411384#3 -230411384#1 -230411384#0 -160346394#0"/>
    </vehicle>
    <vehicle id="145" depart="64.00">
        <route edges="38754833#11 -38754833#11 -38754833#10 -38754835#11 -38754835#10 -38754835#9 -38754835#8 -38754835#7 -38754835#6 -38754835#5 -38754835#4 -38754835#3 -38754835#2 -38754835#1 38754994"/>
    </vehicle>
    <vehicle id="147" depart="65.00">
        <route edges="-38754833#8 -38754833#4 -38754833#3"/>
    </vehicle>
    <vehicle id="148" depart="65.00">
        <route edges="-174648974#14 -174648974#13 -174648974#12 -174648974#11 -174648974#10 -174648974#9 -174648974#8 -174648974#6 -174648974#5 -174648974#4 -174648974#3 -174648974#2 -174648974#1 -174648974#0 -24531446#5 99713561#0 99713561#1 546326460 -546326460"/>
    </vehicle>
    <vehicle id="150" depart="66.00">
        <route edges="-230411399 -230411398#1 -230411398#0 231525751#5 -230411384#3 -230411384#1 -230411384#0 160346394#1 160346394#2 160346394#3 230411386"/>
    </vehicle>
    <vehicle id="151" depart="66.00">
        <route edges="-795261070 795261070 -230411397#0 -230411383#1 -230411383#0 160346394#6 -174648974#17 -174648974#16 -174648974#14 -174648974#13 -174648974#12 -174648974#11 -174648974#10 -174648974#9 -174648974#8 -28109868#2 -28109868#1 179129155#1 179129155#2 179129155#4 179129155#5 179129155#7"/>
    </vehicle>
    <vehicle id="153" depart="67.00">
        <route edges="-179129155#3 -179129155#1 28109868#0 28109868#2 174648974#8 174648974#9 174648974#10 174648974#11 174648974#12 -795261053#1 -795261053#0"/>
    </vehicle>
    <vehicle id="154" depart="67.00">
        <route edges="-38755007 -38754833#10 -38754835#11 -38754835#10 -38754835#9 -38754835#8 -38754835#7 -38754835#6 -38754835#5 -38754835#4 -38754835#3 -38754835#2 -38754835#1 38754835#1"/>
    </vehicle>
    <vehicle id="155" depart="67.00">
        <route edges="38754833#10 -38754833#10 -38754833#9 -38754833#8 38754842#0 38754842#1 38754844#1 38754845#0 38754845#1 38754845#2"/>
    </vehicle>
    <vehicle id="156" depart="68.00">
        <route edges="-230411364#4 230411364#0 230411364#6 230411364#7 230411364#8 -99713561#3 -99713561#2 -99713561#1 -99713561#0 24531446#5 174648974#0 174648974#1 -174648974#1"/>
    </vehicle>
    <vehicle id="157" depart="68.00">
        <route edges="99713561#5 800358827 -230411364#8 -659848302"/>
    </vehicle>
    <vehicle id="159" depart="69.00">
        <route edges="795276318 -38754835#5 -38754835#4 -38754835#3 -38754835#2 -38754835#1 -38754835#0 38753429#1 38753429#2 38753429#3 -38753429#3"/>
    </vehicle>
    <vehicle id="160" depart="69.00">
        <route edges="-24531446#5 -24531446#4 -24531446#3 -24531446#2 -24531446#0 -179129155#1 179129153 26676549#0 256682037 28263624#0 231525751#0 231525751#2 231525751#3 231525751#4 230411398#0 230411398#1 -230411398#1"/>
    </vehicle>
    <vehicle id="164" depart="70.00">
        <route edges="800260295#1 -28109868#2 -28109868#1 179129153 26676549#0 256682037 28263624#0 231525751#0 231525751#2 231525751#3 231525751#4 231525751#5 -230411384#3 -230411384#1 230411388 -230411388"/>
    </vehicle>
    <vehicle id="166" depart="71.00">
        <route edges="364872807#0 -256682036 -589691606 -26676549#1 231524908#0 28109868#0 28109868#2 -174648974#6 -174648974#5 -174648974#4 -230411361#0"/>
    </vehicle>
    <vehicle id="167" depart="72.00">
        <route edges="230411398#1 -230411398#1 -230411398#0 231525751#5 -230411384#3 -230411384#1 -230411384#0 160346394#1 160346394#2 230411385 -230411385"/>
    </vehicle>
    <vehicle id="172" depart="73.00">
        <route edges="-230411387#1 -230411387#0 -231525751#7 -230411383#2 -230411383#1 -230411383#0 160346394#6 -174648974#17 -174648974#16 -174648974#14 -174648974#13 -174648974#12 -174648974#11 -174648974#10 -174648974#9 -174648974#8 -28109868#2 -28109868#1 179129153 26676549#0 256682037 28263624#0 -795536152#1 -722469737#3 722469737#0 795536152#0"/>
    </vehicle>
    <vehicle id="177" depart="75.00">
        <route edges="38754990#2 -38754990#2 38754835#2 38754835#3 38754835#4 -38754846#1 -38754846#0 -38754845#3 -38754845#2 -38754845#1 38754845#1"/>
    </vehicle>
    <vehicle id="179" depart="76.00">
        <route edges="230411392#0 230411394 231525751#3 231525751#4 231525751#5 -230411383#2 -230411383#1 -230411383#0 160346394#6 -174648974#17 -174648974#16 -174648974#14 -174648974#13 -795261053#1 -795261053#0"/>
    </vehicle>
    <vehicle id="184" depart="78.00">
        <route edges="28109868#0 -28109868#1 179129153 26676549#0 256682037 28263624#0 231525751#0 231525751#2 231525751#3 231525751#4 231525751#5 -230411383#2 230411397#0"/>
    </vehicle>
    <vehicle id="187" depart="79.00">
        <route edges="160346394#2 160346394#3 160346394#4 160346394#5 160346394#6 -174648974#17 -174648974#16 -174648974#14 -174648974#13 -174648974#12 174648974#12"/>
    </vehicle>
    <vehicle id="189" depart="80.00">
        <route edges="-38754840 -38754836#5 -38754836#3 -38754836#2 -38754836#1"/>
    </vehicle>
    <vehicle id="196" depart="83.00">
        <route edges="312061905#0 312061905#2 26676549#0 256682037 28263624#0 231525751#0 231525751#2 231525751#3 231525751#4 230411398#0 230411398#1 -230411398#1"/>
    </vehicle>
    <vehicle id="198" depart="84.00">
        <route edges="-800338310 372785406#1 372785406#3 -372785406#3"/>
    </vehicle>
    <vehicle id="201" depart="85.00">
        <route edges="-179129155#6 -179129155#4 -179129155#3 24531446#0 24531446#2 -24531446#2"/>
    </vehicle>
    <vehicle id="206" depart="87.00">
        <route edges="230411397#0 -230411397#0 -230411383#1 -230411383#0 230411383#0"/>
    </vehicle>
    <vehicle id="207" depart="87.00">
        <route edges="795276317#2 -795276317#2 -817131842 38754845#5 38754845#6 38753429#4 38753429#6 38753429#7 38753429#8 -38753429#8"/>
    </vehicle>
    <vehicle id="208" depart="87.00">
        <route edges="24354215 -38754302 -24566729#1"/>
    </vehicle>
    <vehicle id="209" depart="88.00">
        <route edges="-230411361#0 -372785406#0 -174648974#3 -1053831742"/>
    </vehicle>
    <vehicle id="211" depart="88.00">
        <route edges="312061905#2"/>
    </vehicle>
    <vehicle id="212" depart="89.00">
        <route edges="26676549#0 -26676549#1 231524908#0 28109868#0 28109868#2 174648974#8 174648974#9 174648974#10 -795261065 795261065"/>
    </vehicle>
    <vehicle id="213" depart="89.00">
        <route edges="230411398#0 -230411398#0 231525751#5 -230411383#2 -230411383#1 -230411383#0 160346394#6 -174648974#17 -174648974#16 -174648974#14 -174648974#13 -174648974#12 -174648974#11 -174648974#10 -174648974#9 -174648974#8 -28109868#2 -28109868#1 179129153 231524908#0"/>
    </vehicle>
    <vehicle id="214" depart="90.00">
        <route edges="230411357#1 -230411359#1 -230411359#0 -230411358#0 174648974#6 -28109868#2 -28109868#1 179129153 26676549#0 256682037 28263624#0 231525751#0 231525751#2 231525751#3 231525751#4 231525751#5 -230411383#2 230411397#0"/>
    </vehicle>
    <vehicle id="215" depart="90.00">
        <route edges="-230411359#1 -230411359#0 -230411358#0 174648974#6 -28109868#2 -28109868#1"/>
    </vehicle>
    <vehicle id="217" depart="91.00">
        <route edges="-230411398#1 -230411398#0 231525751#5 -230411383#2 -230411383#1 -230411383#0 160346394#6 -174648974#17 -174648974#16 -174648974#14 -174648974#13 -174648974#12 -174648974#11 -174648974#10 -174648974#9 -174648974#8 -28109868#2 -28109868#1 179129153 26676549#0 256682037 256682036"/>
    </vehicle>
    <vehicle id="219" depart="92.00">
        <route edges="-230411363 24531446#4 24531446#5 174648974#0 174648974#1 174648974#2 174648974#3 174648974#4 174648974#5 -174648974#5"/>
    </vehicle>
    <vehicle id="220" depart="92.00">
        <route edges="-38754997 -38753429#7 -38753429#6 -38753429#4 655069638 -38754845#5 -38754845#3 -38754845#2 -38754841#1 -38754841#0 -38754836#3 -38754836#2 -38754836#1"/>
    </vehicle>
    <vehicle id="224" depart="93.00">
        <route edges="160346394#0 230411384#0 230411384#1 230411384#3 -231525751#5 230411398#0"/>
    </vehicle>
    <vehicle id="225" depart="94.00">
        <route edges="230411383#0 -230411383#0 160346394#6 -174648974#17 -174648974#16 -174648974#14 -174648974#13 -174648974#12 -174648974#11 -174648974#10 -174648974#9 -174648974#8 -28109868#2 -28109868#1 179129153 26676549#0 256682037 28263624#0 231525751#0 230411392#0"/>
    </vehicle>
    <vehicle id="229" depart="96.00">
        <route edges="230411358#2 -230411357#2 -230411359#1 230411362 -174648974#1 -174648974#0 -24531446#5 99713561#0 -99713561#0"/>
    </vehicle>
    <vehicle id="233" depart="97.00">
        <route edges="-733460034 733460034 38754833#9"/>
    </vehicle>
    <vehicle id="234" depart="97.00">
        <route edges="38754834 -38754834 38753429#6 -38753429#6"/>
    </vehicle>
    <vehicle id="236" depart="98.00">
        <route edges="-230411397#1 -230411397#0 -230411383#1 -230411383#0 160346394#6 -174648974#17 -174648974#16 -174648974#14 -174648974#13 -174648974#12 -174648974#11 -174648974#10 -800283586 800283586"/>
    </vehicle>
    <vehicle id="238" depart="99.00">
        <route edges="230411358#3 -230411358#3 -230411358#2 -230411360 174648974#5 174648974#6 -28109868#2 -28109868#1 179129153 26676549#0 256682037 28263624#0 231525751#0 231525751#2 231525751#3 231525751#4 231525751#5 -230411383#2"/>
    </vehicle>
    <vehicle id="242" depart="101.00">
        <route edges="230411358#2 -230411358#2 -230411360 174648974#5 174648974#6 -28109868#2 -28109868#1 179129153 179129154#0 -174648974#17 -795261058"/>
    </vehicle>
    <vehicle id="244" depart="102.00">
        <route edges="38754836#6 -38754836#6 -38754836#5 38754841#0 38754841#1 38754845#2 38754845#3 817131842 -795276317#1"/>
    </vehicle>
    <vehicle id="245" depart="102.00">
        <route edges="38754843#1 -38754843#1 -38754842#2"/>
    </vehicle>
    <vehicle id="246" depart="103.00">
        <route edges="230411383#1 -230411383#1 -230411383#0 160346394#6 -174648974#17 -174648974#16 -174648974#14 -174648974#13 -174648974#12 -174648974#11 -174648974#10 -174648974#9 -174648974#8 -174648974#6 -174648974#5 -174648974#4 -174648974#3 -174648974#2 -174648974#1 -174648974#0 -24531446#5 99713561#0 99713561#1 99713561#2 99713561#3 99713561#5"/>
    </vehicle>
    <vehicle id="247" depart="103.00">
        <route edges="-24531446#3 24531446#3 24531446#4 24531446#5 174648974#0 174648974#1 174648974#2"/>
    </vehicle>
    <vehicle id="248" depart="103.00">
        <route edges="230411358#3 -230411358#3 -230411358#2 -230411360 -174648974#4 174648974#4"/>
    </vehicle>
    <vehicle id="249" depart="104.00">
        <route edges="-38754997 -38753429#7 -38753429#6 -38753429#4 -38753429#3 -38753429#2 -38753429#1 -38753429#0"/>
    </vehicle>
    <vehicle id="254" depart="105.00">
        <route edges="-174648974#3 174648974#3 174648974#4 174648974#5 174648974#6 -28109868#2 -28109868#1 179129153 26676549#0 256682037 28263624#0 231525751#0 231525751#2 231525751#3 231525751#4 231525751#5 231525751#7 231525751#8 160346394#5"/>
    </vehicle>
    <vehicle id="256" depart="106.00">
        <route edges="174648974#9 -174648974#9 -174648974#8 -174648974#6 -174648974#5 -174648974#4 -174648974#3 -174648974#2 -174648974#1 -174648974#0 -24531446#5 99713561#0 99713561#1 -99713561#1"/>
    </vehicle>
    <vehicle id="258" depart="107.00">
        <route edges="160346394#0 160346394#1 160346394#2 160346394#3 160346394#4 160346394#5 160346394#6 -174648974#17 -174648974#16 -174648974#14 -174648974#13 -174648974#12 -174648974#11 -174648974#10 -174648974#9 -174648974#8 -174648974#6 -174648974#5 -174648974#4 -230411361#0 372785406#1 800260297"/>
    </vehicle>
    <vehicle id="259" depart="107.00">
        <route edges="28109868#2 -28109868#2 -28109868#1 179129153 26676549#0 256682037 28263624#0 231525751#0 231525751#2 231525751#3 231525751#4 230411398#0"/>
    </vehicle>
    <vehicle id="261" depart="109.00">
        <route edges="589701037#0 -589701037#0 -256682038#3 -256682036 -589691606 -26676549#1 231524908#0 28109868#0 28109868#2 -174648974#6 -174648974#5 -174648974#4 -174648974#3 -174648974#2"/>
    </vehicle>
    <vehicle id="262" depart="109.00">
        <route edges="230411399 -230411399 -230411398#1 -230411398#0 231525751#5 -230411383#2 -230411383#1 -230411383#0 160346394#6 -174648974#17 -174648974#16 -174648974#14 -174648974#13 -174648974#12 -795261062 795261062"/>
    </vehicle>
    <vehicle id="263" depart="110.00">
        <route edges="-800283585 800283585 -24531446#2 -24531446#0 -179129155#1 179129153 26676549#0 256682037 28263624#0 231525751#0 231525751#2 231525751#3 231525751#4 231525751#5 -230411384#3 -230411384#1"/>
    </vehicle>
    <vehicle id="266" depart="111.00">
        <route edges="-38754844#4 -38754844#3 38754845#0 38754845#1 38754845#2 38754845#3 38754845#5 38754845#6 -38753429#3 -38753429#2 -38753429#1 -38753429#0 38754835#1 38754835#2 38754835#3 -770164514"/>
    </vehicle>
    <vehicle id="268" depart="111.00">
        <route edges="-348244562#1 348244562#0 -589701037#0 -256682038#3 -256682036 -589691606 -26676549#1 231524908#0 28109868#0 28109868#2 -174648974#6 -174648974#5 -174648974#4 230411361#1 -230411361#1"/>
    </vehicle>
    <vehicle id="272" depart="113.00">
        <route edges="-256682038#3 -256682036 -589691606 -26676549#1 231524908#0 28109868#0 28109868#2 174648974#8 -800283587"/>
    </vehicle>
    <vehicle id="273" depart="114.00">
        <route edges="230411383#2 -230411383#2 -230411383#1 -230411383#0 160346394#6 -174648974#17 -174648974#16 -174648974#14 -174648974#13 -174648974#12 -174648974#11 -174648974#10 -174648974#9 -174648974#8 -28109868#2 -28109868#1 179129153 26676549#0 256682037 28263624#0 231525751#0 230411392#0 230411392#1 230411393"/>
    </vehicle>
    <vehicle id="274" depart="114.00">
        <route edges="-38754836#2 38754844#0 38754844#1 38754845#0 38754845#1 38754845#2 38754845#3 38754845#5 38754845#6 -38753429#3 -38753429#2 -38753429#1 -38753429#0 38754835#1 -38754990#1 -38754990#0 38754990#0"/>
    </vehicle>
    <vehicle id="275" depart="114.00">
        <route edges="-795261061 795261061 795261053#1 -174648974#12 -174648974#11 -174648974#10 -174648974#9 -174648974#8 -28109868#2 -28109868#1 179129153 26676549#0 256682037 256682036 -364872807#2 1055011759"/>
    </vehicle>
    <vehicle id="276" depart="115.00">
        <route edges="230411364#8 -99713561#3 -99713561#2 -99713561#1 -99713561#0 24531446#5 174648974#0 174648974#1 174648974#2 174648974#3 174648974#4 230411360 230411358#2"/>
    </vehicle>
    <vehicle id="277" depart="115.00">
        <route edges="800338311 -230411364#6 -358416654#2 -24531446#0 -179129155#1 179129153 26676549#0 256682037 28263624#0 231525751#0 231525751#2 231525751#3 231525751#4 230411398#0 230411400"/>
    </vehicle>
    <vehicle id="278" depart="116.00">
        <route edges="230411364#0 -230411364#4 179129155#5 179129155#7 -24566729#1 24566729#0"/>
    </vehicle>
    <vehicle id="279" depart="116.00">
        <route edges="-179129155#3 24531446#0 24531446#2 24531446#3 24531446#4 24531446#5 174648974#0 174648974#1 230411381"/>
    </vehicle>
    <vehicle id="280" depart="116.00">
        <route edges="736419599 -736419599 -38753429#4 655069638 -38754845#5 -38754845#3 -38754845#2 -38754845#1 -38754843#1 -38754843#0"/>
    </vehicle>
    <vehicle id="282" depart="117.00">
        <route edges="230411396 -230411396 -230411387#0 -231525751#7 -230411383#2 -230411383#1 -230411383#0 160346394#6 -174648974#17 -174648974#16 -174648974#14 -174648974#13 -174648974#12 -174648974#11 -174648974#10 -174648974#9 -174648974#8 -28109868#2 -28109868#1 179129155#1 24531446#0"/>
    </vehicle>
    <vehicle id="285" depart="118.00">
        <route edges="-800338310 -372785406#0 174648974#4 174648974#5 230411358#0 230411359#0 230411359#1"/>
    </vehicle>
    <vehicle id="287" depart="119.00">